@<TRIPOS>MOLECULE

 13974 9364 4621 0 0

@<TRIPOS>ATOM
      1 N           4.6090    4.1080    0.5130 N.am    1  DAL1       -0.3027
      2 HN          4.5380    4.4370   -0.4260 H       1  DAL1        0.1495
      3 CA          5.9690    3.6550    0.9170 C.3     1  DAL1        0.0968
      4 HA          6.0550    3.7040    1.9920 H       1  DAL1        0.0592
      5 CB          7.0770    4.5940    0.3580 C.3     1  DAL1       -0.0381
      6 HB1         8.0130    4.0030    0.4550 H       1  DAL1        0.0252
      7 HB2         7.1050    5.4940    1.0090 H       1  DAL1        0.0252
      8 HB3         6.7950    4.8140   -0.6940 H       1  DAL1        0.0252
      9 C           6.2520    2.1780    0.5390 C.2     1  DAL1        0.2360
     10 O           5.6290    1.8280   -0.5260 O.2     1  DAL1       -0.2736
     11 N           7.0030    1.3130    1.2760 N.am    2  MLE2       -0.2914
     12 CA          7.0540   -0.1730    0.9190 C.3     2  MLE2        0.1023
     13 HA          7.8630   -0.2010    0.2040 H       2  MLE2        0.0597
     14 CM          7.9250    1.8820    2.2230 C.3     2  MLE2        0.0040
     15 HM1         8.5200    2.7950    2.0030 H       2  MLE2        0.0429
     16 HM2         8.8700    1.3020    2.3000 H       2  MLE2        0.0429
     17 HM3         7.4470    1.9900    3.2190 H       2  MLE2        0.0429
     18 CB          7.6740   -1.1670    1.9300 C.3     2  MLE2       -0.0234
     19 HB1         7.0420   -2.0430    2.1890 H       2  MLE2        0.0290
     20 HB2         7.7710   -0.5430    2.8450 H       2  MLE2        0.0290
     21 CG          9.1690   -1.6440    1.6040 C.3     2  MLE2       -0.0446
     22 HG          9.7910   -0.7850    1.2710 H       2  MLE2        0.0296
     23 CD1         9.7280   -2.1680    2.9780 C.3     2  MLE2       -0.0626
     24 HD11       10.6710   -2.7360    2.8300 H       2  MLE2        0.0232
     25 HD12        9.0090   -2.7970    3.5440 H       2  MLE2        0.0232
     26 HD13        9.8530   -1.2560    3.6000 H       2  MLE2        0.0232
     27 CD2         9.1700   -2.6650    0.5140 C.3     2  MLE2       -0.0626
     28 HD21       10.1810   -3.1190    0.4280 H       2  MLE2        0.0232
     29 HD22        8.9330   -2.2000   -0.4670 H       2  MLE2        0.0232
     30 HD23        8.4590   -3.4740    0.7850 H       2  MLE2        0.0232
     31 C           5.7470   -0.8000    0.2880 C.2     2  MLE2        0.2365
     32 O           4.6800   -0.4100    0.8310 O.2     2  MLE2       -0.2735
     33 N           5.6520   -1.6080   -0.7520 N.am    3  MLE3       -0.2914
     34 CA          4.4410   -2.3800   -1.2130 C.3     3  MLE3        0.1023
     35 HA          3.9850   -1.6370   -1.8500 H       3  MLE3        0.0597
     36 CM          6.6270   -1.3880   -1.8360 C.3     3  MLE3        0.0040
     37 HM1         6.9570   -0.3280   -1.8090 H       3  MLE3        0.0429
     38 HM2         6.1000   -1.5990   -2.7910 H       3  MLE3        0.0429
     39 HM3         7.4420   -2.0980   -1.5790 H       3  MLE3        0.0429
     40 CB          4.7280   -3.7170   -2.0470 C.3     3  MLE3       -0.0234
     41 HB1         5.5330   -3.5770   -2.8010 H       3  MLE3        0.0290
     42 HB2         3.8130   -3.9600   -2.6290 H       3  MLE3        0.0290
     43 CG          5.1010   -4.9950   -1.2220 C.3     3  MLE3       -0.0446
     44 HG          4.1210   -5.1040   -0.7090 H       3  MLE3        0.0296
     45 CD1         5.1650   -6.2440   -2.1320 C.3     3  MLE3       -0.0626
     46 HD11        5.2020   -7.1840   -1.5420 H       3  MLE3        0.0232
     47 HD12        6.0880   -6.2210   -2.7510 H       3  MLE3        0.0232
     48 HD13        4.2100   -6.2730   -2.6990 H       3  MLE3        0.0232
     49 CD2         6.2980   -4.9990   -0.3090 C.3     3  MLE3       -0.0626
     50 HD21        7.1350   -5.4920   -0.8480 H       3  MLE3        0.0232
     51 HD22        6.1740   -5.7100    0.5350 H       3  MLE3        0.0232
     52 HD23        6.6110   -4.0280    0.1310 H       3  MLE3        0.0232
     53 C           3.4560   -2.8330   -0.1830 C.2     3  MLE3        0.2365
     54 O           3.8700   -3.3360    0.8750 O.2     3  MLE3       -0.2735
     55 N           2.1450   -2.8470   -0.3390 N.am    4  MVA4       -0.2912
     56 CA          1.2590   -3.1940    0.7630 C.3     4  MVA4        0.1044
     57 HA          1.7240   -3.8620    1.4730 H       4  MVA4        0.0599
     58 CM          1.5080   -2.4070   -1.6390 C.3     4  MVA4        0.0040
     59 HM1         2.1500   -1.7100   -2.2200 H       4  MVA4        0.0429
     60 HM2         0.6180   -1.8170   -1.3330 H       4  MVA4        0.0429
     61 HM3         1.2180   -3.3190   -2.2020 H       4  MVA4        0.0429
     62 CB          0.7370   -2.0060    1.6540 C.3     4  MVA4       -0.0195
     63 HB         -0.1060   -1.4840    1.1550 H       4  MVA4        0.0318
     64 CG1         0.0390   -2.7220    2.8600 C.3     4  MVA4       -0.0605
     65 HG11       -0.2590   -2.0010    3.6510 H       4  MVA4        0.0233
     66 HG12        0.7620   -3.4580    3.2700 H       4  MVA4        0.0233
     67 HG13       -0.8810   -3.3100    2.6580 H       4  MVA4        0.0233
     68 CG2         1.8000   -1.0250    2.0550 C.3     4  MVA4       -0.0605
     69 HG21        1.2680   -0.3560    2.7640 H       4  MVA4        0.0233
     70 HG22        2.3280   -0.5100    1.2250 H       4  MVA4        0.0233
     71 HG23        2.6240   -1.4360    2.6760 H       4  MVA4        0.0233
     72 C           0.0660   -4.0520    0.2890 C.2     4  MVA4        0.2368
     73 O          -0.9140   -3.4920   -0.2580 O.2     4  MVA4       -0.2735
     74 N           0.0950   -5.3760    0.4140 N.am    5  BMT5       -0.2890
     75 CA         -1.1520   -6.1430    0.4240 C.3     5  BMT5        0.1279
     76 HA         -1.2950   -6.4210   -0.6100 H       5  BMT5        0.0623
     77 CM          1.3420   -6.0230    0.2290 C.3     5  BMT5        0.0041
     78 HM1         2.1850   -5.3870   -0.1180 H       5  BMT5        0.0429
     79 HM2         1.2210   -6.7890   -0.5670 H       5  BMT5        0.0429
     80 HM3         1.6370   -6.5160    1.1790 H       5  BMT5        0.0429
     81 CB         -1.0330   -7.5780    1.0320 C.3     5  BMT5        0.0848
     82 HB         -0.0300   -7.9950    0.7980 H       5  BMT5        0.0619
     83 OG1        -1.8470   -8.4780    0.2550 O.3     5  BMT5       -0.3892
     84 HG1        -1.4960   -8.5550   -0.6350 H       5  BMT5        0.2099
     85 CG2        -1.2710   -7.7930    2.5630 C.3     5  BMT5       -0.0153
     86 HG2        -2.3210   -7.5860    2.8640 H       5  BMT5        0.0324
     87 CD1        -0.2600   -6.9260    3.3480 C.3     5  BMT5       -0.0600
     88 HD11       -0.0770   -5.8740    3.0410 H       5  BMT5        0.0233
     89 HD12        0.7770   -7.3220    3.3190 H       5  BMT5        0.0233
     90 HD13       -0.5570   -6.8650    4.4170 H       5  BMT5        0.0233
     91 CD2        -0.9250   -9.2730    2.8320 C.3     5  BMT5       -0.0447
     92 HD21        0.1490   -9.3230    2.5500 H       5  BMT5        0.0271
     93 HD22       -1.4420  -10.0170    2.1900 H       5  BMT5        0.0271
     94 CE         -1.0870   -9.5830    4.3040 C.3     5  BMT5       -0.0348
     95 HE1        -2.0920   -9.3540    4.6870 H       5  BMT5        0.0306
     96 CZ         -0.1160   -9.9280    5.1700 C.3     5  BMT5       -0.0379
     97 HZ1         0.9320   -9.7740    4.8720 H       5  BMT5        0.0304
     98 CH         -0.2180  -10.1520    6.6370 C.3     5  BMT5       -0.0619
     99 HH11        0.4100   -9.4720    7.2520 H       5  BMT5        0.0233
    100 HH12        0.1810  -11.1290    6.9840 H       5  BMT5        0.0233
    101 HH13       -1.2460  -10.0010    7.0300 H       5  BMT5        0.0233
    102 C          -2.4050   -5.5490    0.9600 C.2     5  BMT5        0.2367
    103 O          -2.4710   -4.8040    1.9380 O.2     5  BMT5       -0.2737
    104 N          -3.4940   -5.9040    0.2300 N.am    6  ABA6       -0.3024
    105 HN         -3.2820   -6.3240   -0.6490 H       6  ABA6        0.1495
    106 CA         -4.8610   -5.5170    0.5440 C.3     6  ABA6        0.0994
    107 HA         -5.4900   -6.2140    0.0100 H       6  ABA6        0.0594
    108 CB         -5.3400   -5.5410    1.9840 C.3     6  ABA6       -0.0288
    109 HB1        -6.3540   -5.1230    2.1640 H       6  ABA6        0.0285
    110 HB2        -4.7010   -4.9570    2.6810 H       6  ABA6        0.0285
    111 CG         -5.4530   -7.0530    2.4250 C.3     6  ABA6       -0.0631
    112 HG1        -6.3020   -7.5200    1.8820 H       6  ABA6        0.0230
    113 HG2        -4.5720   -7.7180    2.3010 H       6  ABA6        0.0230
    114 HG3        -5.6690   -7.2090    3.5040 H       6  ABA6        0.0230
    115 C          -5.1700   -4.0880    0.0500 C.2     6  ABA6        0.2361
    116 O          -4.2270   -3.3060   -0.1090 O.2     6  ABA6       -0.2736
    117 N          -6.4460   -3.6020   -0.3100 N.am    7  SAR7       -0.2942
    118 CA         -6.8850   -2.1960   -0.6440 C.3     7  SAR7        0.0909
    119 HA1        -7.9180   -2.1090   -0.3410 H       7  SAR7        0.0560
    120 HA2        -6.7060   -2.2210   -1.7090 H       7  SAR7        0.0560
    121 CM         -7.6080   -4.4980   -0.3380 C.3     7  SAR7        0.0037
    122 HM1        -7.3850   -5.4710   -0.8250 H       7  SAR7        0.0429
    123 HM2        -8.0740   -4.6390    0.6610 H       7  SAR7        0.0429
    124 HM3        -8.3060   -4.0000   -1.0440 H       7  SAR7        0.0429
    125 C          -6.1800   -0.9270   -0.1980 C.2     7  SAR7        0.2333
    126 O          -5.5020   -0.9770    0.8560 O.2     7  SAR7       -0.2739
    127 N          -6.3130    0.2120   -0.9480 N.am    8  MLE8       -0.2917
    128 CA         -5.5140    1.4310   -0.6790 C.3     8  MLE8        0.1021
    129 HA         -4.5450    1.2120   -1.1030 H       8  MLE8        0.0597
    130 CM         -7.2470    0.2750   -2.1330 C.3     8  MLE8        0.0040
    131 HM1        -7.7410   -0.6890   -2.3800 H       8  MLE8        0.0429
    132 HM2        -6.6260    0.6430   -2.9770 H       8  MLE8        0.0429
    133 HM3        -8.0330    1.0310   -1.9190 H       8  MLE8        0.0429
    134 CB         -6.2170    2.7010   -1.2950 C.3     8  MLE8       -0.0234
    135 HB1        -7.2770    2.7450   -0.9660 H       8  MLE8        0.0290
    136 HB2        -6.1810    2.5810   -2.3990 H       8  MLE8        0.0290
    137 CG         -5.6860    4.1330   -1.1750 C.3     8  MLE8       -0.0446
    138 HG         -5.5630    4.4600   -0.1200 H       8  MLE8        0.0296
    139 CD1        -4.2650    4.1550   -1.8810 C.3     8  MLE8       -0.0626
    140 HD11       -3.8120    5.1520   -1.6900 H       8  MLE8        0.0232
    141 HD12       -4.2950    3.9020   -2.9620 H       8  MLE8        0.0232
    142 HD13       -3.7270    3.3960   -1.2740 H       8  MLE8        0.0232
    143 CD2        -6.8120    5.0710   -1.7890 C.3     8  MLE8       -0.0626
    144 HD21       -7.8250    4.8830   -1.3720 H       8  MLE8        0.0232
    145 HD22       -6.8040    5.0760   -2.9000 H       8  MLE8        0.0232
    146 HD23       -6.5840    6.1370   -1.5740 H       8  MLE8        0.0232
    147 C          -5.1800    1.7630    0.7870 C.2     8  MLE8        0.2342
    148 O          -6.0760    1.7650    1.6480 O.2     8  MLE8       -0.2738
    149 N          -3.9140    2.1370    1.0730 N.am    9  VAL9       -0.3022
    150 HN         -3.1860    2.4050    0.4460 H       9  VAL9        0.1495
    151 CA         -3.4970    2.4740    2.4830 C.3     9  VAL9        0.1019
    152 HA         -4.3220    3.0250    2.9100 H       9  VAL9        0.0597
    153 CB         -3.0790    1.2510    3.3900 C.3     9  VAL9       -0.0197
    154 HB         -2.3530    1.5670    4.1700 H       9  VAL9        0.0318
    155 CG1        -4.3790    0.7740    4.0470 C.3     9  VAL9       -0.0605
    156 HG11       -5.0010    0.2170    3.3150 H       9  VAL9        0.0233
    157 HG12       -5.0710    1.5970    4.3250 H       9  VAL9        0.0233
    158 HG13       -4.1480    0.0160    4.8260 H       9  VAL9        0.0233
    159 CG2        -2.2780    0.2410    2.5740 C.3     9  VAL9       -0.0605
    160 HG21       -2.8760   -0.0250    1.6760 H       9  VAL9        0.0233
    161 HG22       -1.9470   -0.6630    3.1290 H       9  VAL9        0.0233
    162 HG23       -1.3010    0.6230    2.2080 H       9  VAL9        0.0233
    163 C          -2.3940    3.4750    2.3190 C.2     9  VAL9        0.2365
    164 O          -1.9650    3.6000    1.1870 O.2     9  VAL9       -0.2735
    165 N          -1.8300    4.2030    3.3610 N.am   10  MLE10      -0.2914
    166 CA         -0.5610    4.9100    3.3710 C.3    10  MLE10       0.1021
    167 HA         -0.7330    5.8640    2.8960 H      10  MLE10       0.0597
    168 CM         -2.6110    4.3580    4.6130 C.3    10  MLE10       0.0040
    169 HM1        -3.5880    3.8290    4.6070 H      10  MLE10       0.0429
    170 HM2        -2.6510    5.4560    4.7800 H      10  MLE10       0.0429
    171 HM3        -1.9650    3.9800    5.4330 H      10  MLE10       0.0429
    172 CB          0.1750    5.1670    4.7230 C.3    10  MLE10      -0.0234
    173 HB1         0.6560    4.2020    4.9890 H      10  MLE10       0.0290
    174 HB2        -0.5210    5.3910    5.5600 H      10  MLE10       0.0290
    175 CG          1.1980    6.3060    4.8210 C.3    10  MLE10      -0.0446
    176 HG          2.0910    6.1970    4.1700 H      10  MLE10       0.0296
    177 CD1         0.6680    7.6700    4.7110 C.3    10  MLE10      -0.0626
    178 HD11       -0.0630    8.0490    5.4570 H      10  MLE10       0.0232
    179 HD12        0.1830    7.6760    3.7120 H      10  MLE10       0.0232
    180 HD13        1.5140    8.3870    4.7930 H      10  MLE10       0.0232
    181 CD2         1.9140    6.2410    6.2500 C.3    10  MLE10      -0.0626
    182 HD21        2.2130    5.1870    6.4310 H      10  MLE10       0.0232
    183 HD22        1.0920    6.5560    6.9270 H      10  MLE10       0.0232
    184 HD23        2.8060    6.9040    6.2630 H      10  MLE10       0.0232
    185 C           0.5050    4.2530    2.4710 C.2    10  MLE10       0.2341
    186 O           0.6460    3.0290    2.3420 O.2    10  MLE10      -0.2738
    187 N           1.3240    5.1240    1.8750 N.am   11  ALA11      -0.3027
    188 HN          1.2850    6.1190    1.9220 H      11  ALA11       0.1495
    189 CA          2.3140    4.6070    0.9520 C.3    11  ALA11       0.0966
    190 HA          1.9550    3.7040    0.4820 H      11  ALA11       0.0592
    191 CB          2.4370    5.6370   -0.1420 C.3    11  ALA11      -0.0381
    192 HB1         1.4690    6.1680   -0.2720 H      11  ALA11       0.0252
    193 HB2         2.9130    5.2010   -1.0460 H      11  ALA11       0.0252
    194 HB3         3.1440    6.4660    0.0760 H      11  ALA11       0.0252
    195 C           3.6210    4.1060    1.4660 C.2    11  ALA11       0.2337
    196 O           3.8040    3.6870    2.5830 O.2    11  ALA11      -0.2738
    197 OH2        17.4890    8.5780   11.3560 O.3    12  TIP1       -0.4105
    198 H1         17.2490    9.5040   11.3210 H      12  TIP1        0.2052
    199 H2         16.6600    8.1110   11.2550 H      12  TIP1        0.2052
    200 OH2       -20.9430   -7.5740   -4.2850 O.3    13  TIP2       -0.4105
    201 H1        -20.9800   -6.7690   -4.8030 H      13  TIP2        0.2052
    202 H2        -21.8570   -7.8400   -4.1890 H      13  TIP2        0.2052
    203 OH2       -19.7640   -9.4820   12.1710 O.3    14  TIP3       -0.4105
    204 H1        -19.9540   -9.2640   13.0830 H      14  TIP3        0.2052
    205 H2        -19.9730   -8.6850   11.6850 H      14  TIP3        0.2052
    206 OH2        -1.9560    5.4700   22.5560 O.3    15  TIP4       -0.4105
    207 H1         -1.0290    5.3010   22.7210 H      15  TIP4        0.2052
    208 H2         -2.3110    4.6240   22.2850 H      15  TIP4        0.2052
    209 OH2         9.1830   -4.9630   -2.3900 O.3    16  TIP5       -0.4105
    210 H1          8.7010   -5.6450   -2.8600 H      16  TIP5        0.2052
    211 H2          8.9930   -4.1590   -2.8730 H      16  TIP5        0.2052
    212 OH2       -14.7860  -12.7690    1.2890 O.3    17  TIP6       -0.4105
    213 H1        -13.9920  -12.3430    1.6130 H      17  TIP6        0.2052
    214 H2        -15.4290  -12.0630    1.2270 H      17  TIP6        0.2052
    215 OH2        10.6280  -17.3520   -0.2300 O.3    18  TIP7       -0.4105
    216 H1         10.0180  -17.8660    0.3000 H      18  TIP7        0.2052
    217 H2         10.1070  -16.6150   -0.5480 H      18  TIP7        0.2052
    218 OH2        24.4980    9.7540    7.2240 O.3    19  TIP8       -0.4105
    219 H1         24.7780    8.9720    6.7480 H      19  TIP8        0.2052
    220 H2         23.9440   10.2270    6.6040 H      19  TIP8        0.2052
    221 OH2         5.1110    5.7290  -23.1500 O.3    20  TIP9       -0.4105
    222 H1          4.9080    5.1690  -22.4000 H      20  TIP9        0.2052
    223 H2          4.9860    6.6210  -22.8240 H      20  TIP9        0.2052
    224 OH2       -19.2060   -7.1610   24.2660 O.3    21  TIP10      -0.4105
    225 H1        -20.1200   -7.1630   23.9820 H      21  TIP10       0.2052
    226 H2        -19.1710   -6.4960   24.9540 H      21  TIP10       0.2052
    227 OH2       -12.7990   12.4230   18.6850 O.3    22  TIP11      -0.4105
    228 H1        -12.1060   11.7930   18.4860 H      22  TIP11       0.2052
    229 H2        -12.7690   12.5190   19.6370 H      22  TIP11       0.2052
    230 OH2       -16.0450  -13.4080  -19.5740 O.3    23  TIP12      -0.4105
    231 H1        -16.8180  -13.5380  -19.0230 H      23  TIP12       0.2052
    232 H2        -15.8870  -14.2650  -19.9700 H      23  TIP12       0.2052
    233 OH2        14.6940  -25.6990   12.8830 O.3    24  TIP13      -0.4105
    234 H1         14.7880  -25.4900   13.8120 H      24  TIP13       0.2052
    235 H2         15.5730  -25.9560   12.6040 H      24  TIP13       0.2052
    236 OH2         5.5030   18.7340   -8.4950 O.3    25  TIP14      -0.4105
    237 H1          4.5650   18.9240   -8.4930 H      25  TIP14       0.2052
    238 H2          5.9210   19.5830   -8.3540 H      25  TIP14       0.2052
    239 OH2         9.5460   -6.1450  -18.1890 O.3    26  TIP15      -0.4105
    240 H1         10.3400   -5.7830  -18.5820 H      26  TIP15       0.2052
    241 H2          8.9940   -6.3780  -18.9350 H      26  TIP15       0.2052
    242 OH2        19.6080    2.1320   10.5190 O.3    27  TIP16      -0.4105
    243 H1         19.0890    2.7300   11.0580 H      27  TIP16       0.2052
    244 H2         19.3930    2.3750    9.6180 H      27  TIP16       0.2052
    245 OH2         3.0540   -5.5650    5.2840 O.3    28  TIP17      -0.4105
    246 H1          3.3430   -5.3100    4.4080 H      28  TIP17       0.2052
    247 H2          3.6900   -6.2230    5.5650 H      28  TIP17       0.2052
    248 OH2         3.3470   12.0670   20.8240 O.3    29  TIP18      -0.4105
    249 H1          3.3130   13.0230   20.8580 H      29  TIP18       0.2052
    250 H2          2.7870   11.7810   21.5460 H      29  TIP18       0.2052
    251 OH2       -11.3050   -5.5420  -14.4330 O.3    30  TIP19      -0.4105
    252 H1        -11.8580   -6.1950  -14.8610 H      30  TIP19       0.2052
    253 H2        -10.7800   -5.1700  -15.1420 H      30  TIP19       0.2052
    254 OH2        -2.1330  -20.0950   -1.3560 O.3    31  TIP20      -0.4105
    255 H1         -2.8650  -20.6390   -1.6460 H      31  TIP20       0.2052
    256 H2         -2.2170  -19.2890   -1.8650 H      31  TIP20       0.2052
    257 OH2        27.3570   17.9480    8.6980 O.3    32  TIP21      -0.4105
    258 H1         27.4660   17.3720    9.4550 H      32  TIP21       0.2052
    259 H2         27.7620   18.7740    8.9640 H      32  TIP21       0.2052
    260 OH2        10.6740  -14.9180   10.5250 O.3    33  TIP22      -0.4105
    261 H1         10.7510  -15.8550   10.3450 H      33  TIP22       0.2052
    262 H2          9.7310  -14.7570   10.5620 H      33  TIP22       0.2052
    263 OH2        18.9630  -15.4780    8.5200 O.3    34  TIP23      -0.4105
    264 H1         18.4000  -14.9530    9.0890 H      34  TIP23       0.2052
    265 H2         18.5490  -16.3410    8.5020 H      34  TIP23       0.2052
    266 OH2         8.5380   12.9120   16.7570 O.3    35  TIP24      -0.4105
    267 H1          8.3460   12.2400   16.1030 H      35  TIP24       0.2052
    268 H2          8.9180   12.4310   17.4920 H      35  TIP24       0.2052
    269 OH2       -18.7070    6.0780    7.4350 O.3    36  TIP25      -0.4105
    270 H1        -19.3950    5.5850    6.9870 H      36  TIP25       0.2052
    271 H2        -19.1180    6.9130    7.6600 H      36  TIP25       0.2052
    272 OH2       -13.5410    3.5960   20.0010 O.3    37  TIP26      -0.4105
    273 H1        -13.7300    3.6530   20.9370 H      37  TIP26       0.2052
    274 H2        -13.4380    4.5060   19.7220 H      37  TIP26       0.2052
    275 OH2        20.8890    9.7690   -1.1670 O.3    38  TIP27      -0.4105
    276 H1         20.5200    9.2000   -0.4910 H      38  TIP27       0.2052
    277 H2         21.8310    9.6070   -1.1290 H      38  TIP27       0.2052
    278 OH2        -8.6010  -13.9170   20.8860 O.3    39  TIP28      -0.4105
    279 H1         -9.4170  -13.8410   20.3910 H      39  TIP28       0.2052
    280 H2         -8.1380  -14.6460   20.4720 H      39  TIP28       0.2052
    281 OH2        25.8010   -1.8650   -3.2200 O.3    40  TIP29      -0.4105
    282 H1         25.7120   -0.9340   -3.4240 H      40  TIP29       0.2052
    283 H2         26.6330   -1.9300   -2.7520 H      40  TIP29       0.2052
    284 OH2        18.1230   -2.8190    4.3170 O.3    41  TIP30      -0.4105
    285 H1         17.5380   -2.5450    3.6110 H      41  TIP30       0.2052
    286 H2         17.5390   -3.0230    5.0470 H      41  TIP30       0.2052
    287 OH2       -26.7700  -10.3820   -5.5730 O.3    42  TIP31      -0.4105
    288 H1        -26.2550  -10.4400   -6.3780 H      42  TIP31       0.2052
    289 H2        -27.6590  -10.1880   -5.8700 H      42  TIP31       0.2052
    290 OH2        -6.9570  -15.8060  -10.9570 O.3    43  TIP32      -0.4105
    291 H1         -7.7250  -16.3770  -10.9870 H      43  TIP32       0.2052
    292 H2         -7.0320  -15.2620  -11.7410 H      43  TIP32       0.2052
    293 OH2       -23.8540  -19.7260   -8.7840 O.3    44  TIP33      -0.4105
    294 H1        -24.1800  -19.6400   -9.6800 H      44  TIP33       0.2052
    295 H2        -23.8900  -18.8380   -8.4290 H      44  TIP33       0.2052
    296 OH2       -35.0890   -2.7970   11.3390 O.3    45  TIP34      -0.4105
    297 H1        -34.2200   -2.9160   11.7230 H      45  TIP34       0.2052
    298 H2        -34.9660   -2.9760   10.4060 H      45  TIP34       0.2052
    299 OH2       -14.4300   -8.2880    9.1710 O.3    46  TIP35      -0.4105
    300 H1        -13.9470   -8.8420    8.5570 H      46  TIP35       0.2052
    301 H2        -15.0680   -7.8270    8.6270 H      46  TIP35       0.2052
    302 OH2        13.6420   16.9290   10.5630 O.3    47  TIP36      -0.4105
    303 H1         13.4710   17.1080   11.4880 H      47  TIP36       0.2052
    304 H2         12.7810   16.7370   10.1920 H      47  TIP36       0.2052
    305 OH2        14.8100   19.0470   -4.0880 O.3    48  TIP37      -0.4105
    306 H1         14.5560   19.9680   -4.1450 H      48  TIP37       0.2052
    307 H2         14.5430   18.7780   -3.2080 H      48  TIP37       0.2052
    308 OH2       -14.4750   31.0000    9.2020 O.3    49  TIP38      -0.4105
    309 H1        -13.6600   31.1490    8.7240 H      49  TIP38       0.2052
    310 H2        -14.4030   31.5560    9.9780 H      49  TIP38       0.2052
    311 OH2        -0.9360  -18.8840   25.5630 O.3    50  TIP39      -0.4105
    312 H1         -1.7740  -19.2840   25.7970 H      50  TIP39       0.2052
    313 H2         -0.7860  -18.2280   26.2440 H      50  TIP39       0.2052
    314 OH2        -0.4510    9.8140   19.3030 O.3    51  TIP40      -0.4105
    315 H1         -1.0310    9.0630   19.4220 H      51  TIP40       0.2052
    316 H2          0.2330    9.6960   19.9620 H      51  TIP40       0.2052
    317 OH2        -0.0200   22.4020   10.9310 O.3    52  TIP41      -0.4105
    318 H1          0.7510   22.9310   11.1380 H      52  TIP41       0.2052
    319 H2         -0.0500   21.7400   11.6220 H      52  TIP41       0.2052
    320 OH2       -16.2760    2.9080  -10.0240 O.3    53  TIP42      -0.4105
    321 H1        -15.6050    2.2400   -9.8800 H      53  TIP42       0.2052
    322 H2        -16.2140    3.4790   -9.2590 H      53  TIP42       0.2052
    323 OH2        10.4290  -14.5430   22.6580 O.3    54  TIP43      -0.4105
    324 H1         10.2880  -13.6240   22.4290 H      54  TIP43       0.2052
    325 H2         11.1040  -14.8410   22.0480 H      54  TIP43       0.2052
    326 OH2         9.3970  -21.7810   10.9120 O.3    55  TIP44      -0.4105
    327 H1         10.0190  -21.8220   11.6380 H      55  TIP44       0.2052
    328 H2          8.5410  -21.7070   11.3330 H      55  TIP44       0.2052
    329 OH2        14.7550  -15.6840   -8.4300 O.3    56  TIP45      -0.4105
    330 H1         14.0560  -15.8520   -7.7970 H      56  TIP45       0.2052
    331 H2         15.2920  -15.0070   -8.0200 H      56  TIP45       0.2052
    332 OH2        20.2920  -23.8970    4.3950 O.3    57  TIP46      -0.4105
    333 H1         20.0190  -23.4470    3.5960 H      57  TIP46       0.2052
    334 H2         19.9140  -24.7730    4.3190 H      57  TIP46       0.2052
    335 OH2        31.5470   -2.8280   -3.2010 O.3    58  TIP47      -0.4105
    336 H1         31.3010   -2.3010   -3.9620 H      58  TIP47       0.2052
    337 H2         31.4760   -3.7340   -3.5040 H      58  TIP47       0.2052
    338 OH2        14.4400   -7.5020   17.2800 O.3    59  TIP48      -0.4105
    339 H1         14.7260   -6.7130   16.8200 H      59  TIP48       0.2052
    340 H2         13.6660   -7.2260   17.7710 H      59  TIP48       0.2052
    341 OH2       -15.9340    2.7260   19.0200 O.3    60  TIP49      -0.4105
    342 H1        -16.5180    3.4750   19.1400 H      60  TIP49       0.2052
    343 H2        -15.1590    2.9410   19.5390 H      60  TIP49       0.2052
    344 OH2        12.0720  -20.2270    4.3730 O.3    61  TIP50      -0.4105
    345 H1         11.8180  -20.9810    4.9060 H      61  TIP50       0.2052
    346 H2         12.8680  -19.8960    4.7890 H      61  TIP50       0.2052
    347 OH2        15.3750    1.7020   14.7940 O.3    62  TIP51      -0.4105
    348 H1         14.5300    2.0060   14.4630 H      62  TIP51       0.2052
    349 H2         15.1830    1.3610   15.6670 H      62  TIP51       0.2052
    350 OH2        -2.2160   -7.5090  -18.7670 O.3    63  TIP52      -0.4105
    351 H1         -1.7820   -8.3250  -18.5200 H      63  TIP52       0.2052
    352 H2         -1.8050   -6.8420  -18.2160 H      63  TIP52       0.2052
    353 OH2        13.1160   -4.9760   -0.5590 O.3    64  TIP53      -0.4105
    354 H1         13.9130   -5.4900   -0.4300 H      64  TIP53       0.2052
    355 H2         13.2230   -4.2190    0.0170 H      64  TIP53       0.2052
    356 OH2       -18.1420  -16.4680  -12.0830 O.3    65  TIP54      -0.4105
    357 H1        -18.5720  -17.1360  -12.6160 H      65  TIP54       0.2052
    358 H2        -18.5540  -15.6460  -12.3480 H      65  TIP54       0.2052
    359 OH2        -3.5560   18.0480  -18.7620 O.3    66  TIP55      -0.4105
    360 H1         -2.8620   18.6880  -18.9190 H      66  TIP55       0.2052
    361 H2         -4.0610   18.4140  -18.0360 H      66  TIP55       0.2052
    362 OH2        12.1110    7.6870  -12.9600 O.3    67  TIP56      -0.4105
    363 H1         12.0760    7.1990  -13.7830 H      67  TIP56       0.2052
    364 H2         11.2900    7.4700  -12.5180 H      67  TIP56       0.2052
    365 OH2       -13.9810    8.5930   -9.5370 O.3    68  TIP57      -0.4105
    366 H1        -14.2470    7.6880   -9.3720 H      68  TIP57       0.2052
    367 H2        -13.1870    8.7080   -9.0160 H      68  TIP57       0.2052
    368 OH2        -3.6200   24.9660  -17.3170 O.3    69  TIP58      -0.4105
    369 H1         -4.0580   25.7800  -17.5700 H      69  TIP58       0.2052
    370 H2         -2.7070   25.2180  -17.1780 H      69  TIP58       0.2052
    371 OH2       -24.5420  -17.7960  -15.0610 O.3    70  TIP59      -0.4105
    372 H1        -25.1610  -17.9370  -14.3450 H      70  TIP59       0.2052
    373 H2        -24.4370  -18.6590  -15.4610 H      70  TIP59       0.2052
    374 OH2        13.7180  -10.0200  -14.6670 O.3    71  TIP60      -0.4105
    375 H1         14.0800   -9.4220  -14.0130 H      71  TIP60       0.2052
    376 H2         12.8520  -10.2480  -14.3300 H      71  TIP60       0.2052
    377 OH2        -5.6310    3.0320    8.7690 O.3    72  TIP61      -0.4105
    378 H1         -4.8510    2.7260    8.3060 H      72  TIP61       0.2052
    379 H2         -5.5050    2.7400    9.6720 H      72  TIP61       0.2052
    380 OH2       -12.9350    0.1060  -20.1710 O.3    73  TIP62      -0.4105
    381 H1        -12.0690    0.3770  -20.4780 H      73  TIP62       0.2052
    382 H2        -13.4560    0.0210  -20.9700 H      73  TIP62       0.2052
    383 OH2        13.8210   12.8130  -11.8080 O.3    74  TIP63      -0.4105
    384 H1         13.8570   13.2440  -10.9540 H      74  TIP63       0.2052
    385 H2         14.2990   13.4010  -12.3940 H      74  TIP63       0.2052
    386 OH2         8.4380   22.8690    1.0940 O.3    75  TIP64      -0.4105
    387 H1          9.3490   22.6220    1.2520 H      75  TIP64       0.2052
    388 H2          8.3130   22.7370    0.1540 H      75  TIP64       0.2052
    389 OH2         0.4920    3.2230   28.0030 O.3    76  TIP65      -0.4105
    390 H1         -0.0480    3.8320   28.5070 H      76  TIP65       0.2052
    391 H2         -0.1380    2.6630   27.5490 H      76  TIP65       0.2052
    392 OH2         0.6810   26.8300    2.1850 O.3    77  TIP66      -0.4105
    393 H1          0.3990   25.9980    1.8040 H      77  TIP66       0.2052
    394 H2          1.5580   26.9710    1.8300 H      77  TIP66       0.2052
    395 OH2        -2.7370   16.1480   -8.3040 O.3    78  TIP67      -0.4105
    396 H1         -2.8730   16.8360   -7.6530 H      78  TIP67       0.2052
    397 H2         -3.1270   16.4950   -9.1060 H      78  TIP67       0.2052
    398 OH2        11.7990  -26.6410   16.8980 O.3    79  TIP68      -0.4105
    399 H1         11.4260  -25.7590   16.9160 H      79  TIP68       0.2052
    400 H2         11.5280  -26.9990   16.0520 H      79  TIP68       0.2052
    401 OH2       -15.0000   15.5000    1.2070 O.3    80  TIP69      -0.4105
    402 H1        -14.5690   14.8170    1.7220 H      80  TIP69       0.2052
    403 H2        -15.5300   15.0210    0.5700 H      80  TIP69       0.2052
    404 OH2        18.8580  -20.6520   -1.4840 O.3    81  TIP70      -0.4105
    405 H1         18.9060  -21.0930   -0.6360 H      81  TIP70       0.2052
    406 H2         19.5150  -21.0940   -2.0220 H      81  TIP70       0.2052
    407 OH2       -23.0790   29.0260   -0.1820 O.3    82  TIP71      -0.4105
    408 H1        -23.0060   29.8160    0.3530 H      82  TIP71       0.2052
    409 H2        -22.2120   28.6230   -0.1340 H      82  TIP71       0.2052
    410 OH2        -5.7610   25.9540   11.8450 O.3    83  TIP72      -0.4105
    411 H1         -5.3260   25.1610   12.1560 H      83  TIP72       0.2052
    412 H2         -5.8740   26.4900   12.6300 H      83  TIP72       0.2052
    413 OH2         0.8570   -7.0230   16.3280 O.3    84  TIP73      -0.4105
    414 H1          1.2880   -6.3070   15.8610 H      84  TIP73       0.2052
    415 H2          1.1610   -6.9370   17.2320 H      84  TIP73       0.2052
    416 OH2        16.3210   -3.8470    6.4310 O.3    85  TIP74      -0.4105
    417 H1         15.9580   -4.7320    6.3950 H      85  TIP74       0.2052
    418 H2         16.7510   -3.7990    7.2850 H      85  TIP74       0.2052
    419 OH2        36.6910    5.9150   -9.9260 O.3    86  TIP75      -0.4105
    420 H1         37.3690    6.3160  -10.4700 H      86  TIP75       0.2052
    421 H2         36.5090    5.0770  -10.3500 H      86  TIP75       0.2052
    422 OH2       -12.5150   -2.2490    1.5450 O.3    87  TIP76      -0.4105
    423 H1        -11.8530   -2.9210    1.3820 H      87  TIP76       0.2052
    424 H2        -12.8110   -2.4160    2.4390 H      87  TIP76       0.2052
    425 OH2       -11.5860    2.4420   24.4760 O.3    88  TIP77      -0.4105
    426 H1        -12.3010    2.5100   23.8440 H      88  TIP77       0.2052
    427 H2        -11.2040    3.3190   24.5010 H      88  TIP77       0.2052
    428 OH2        -6.4770   -2.4460  -11.3750 O.3    89  TIP78      -0.4105
    429 H1         -6.7250   -3.1930  -11.9200 H      89  TIP78       0.2052
    430 H2         -5.9460   -1.8950  -11.9500 H      89  TIP78       0.2052
    431 OH2       -15.3860    0.4960    4.6690 O.3    90  TIP79      -0.4105
    432 H1        -15.5840    1.4230    4.5360 H      90  TIP79       0.2052
    433 H2        -16.1080    0.0330    4.2430 H      90  TIP79       0.2052
    434 OH2        24.8780   11.6090    0.6950 O.3    91  TIP80      -0.4105
    435 H1         24.1310   12.1110    1.0210 H      91  TIP80       0.2052
    436 H2         24.9970   11.9130   -0.2050 H      91  TIP80       0.2052
    437 OH2         7.7760   22.9820   20.9060 O.3    92  TIP81      -0.4105
    438 H1          8.6830   22.8260   21.1690 H      92  TIP81       0.2052
    439 H2          7.6340   22.3890   20.1690 H      92  TIP81       0.2052
    440 OH2         0.5920    7.8010   27.8890 O.3    93  TIP82      -0.4105
    441 H1          1.0340    8.1500   28.6620 H      93  TIP82       0.2052
    442 H2          1.3020    7.5100   27.3170 H      93  TIP82       0.2052
    443 OH2        22.4530   -7.4890    9.5840 O.3    94  TIP83      -0.4105
    444 H1         22.4950   -7.5270   10.5390 H      94  TIP83       0.2052
    445 H2         23.3640   -7.3820    9.3080 H      94  TIP83       0.2052
    446 OH2       -24.0020   12.4380   11.7490 O.3    95  TIP84      -0.4105
    447 H1        -24.3130   11.8530   11.0580 H      95  TIP84       0.2052
    448 H2        -24.8000   12.7580   12.1700 H      95  TIP84       0.2052
    449 OH2       -11.1850   16.9970  -19.4770 O.3    96  TIP85      -0.4105
    450 H1        -11.3870   16.9930  -20.4120 H      96  TIP85       0.2052
    451 H2        -10.2600   17.2390  -19.4310 H      96  TIP85       0.2052
    452 OH2       -10.0710   25.1820   15.4180 O.3    97  TIP86      -0.4105
    453 H1        -10.8170   24.5840   15.4580 H      97  TIP86       0.2052
    454 H2        -10.1300   25.5810   14.5500 H      97  TIP86       0.2052
    455 OH2         4.1760  -26.4860  -13.4090 O.3    98  TIP87      -0.4105
    456 H1          3.3100  -26.5330  -13.0030 H      98  TIP87       0.2052
    457 H2          4.3480  -25.5480  -13.4970 H      98  TIP87       0.2052
    458 OH2        14.2000   10.0780  -21.3670 O.3    99  TIP88      -0.4105
    459 H1         14.6460    9.5610  -22.0370 H      99  TIP88       0.2052
    460 H2         14.9040   10.4060  -20.8080 H      99  TIP88       0.2052
    461 OH2        36.0190    7.8790   -1.0430 O.3   100  TIP89      -0.4105
    462 H1         36.8030    7.6100   -0.5620 H     100  TIP89       0.2052
    463 H2         35.5560    8.4600   -0.4390 H     100  TIP89       0.2052
    464 OH2       -21.9080   -6.0340  -11.4340 O.3   101  TIP90      -0.4105
    465 H1        -21.6490   -5.1130  -11.4100 H     101  TIP90       0.2052
    466 H2        -21.8520   -6.3230  -10.5230 H     101  TIP90       0.2052
    467 OH2         0.5120    4.0560  -12.8860 O.3   102  TIP91      -0.4105
    468 H1          0.8880    4.8640  -12.5350 H     102  TIP91       0.2052
    469 H2          0.6150    4.1360  -13.8340 H     102  TIP91       0.2052
    470 OH2        -5.9380    1.9240   11.2800 O.3   103  TIP92      -0.4105
    471 H1         -5.4550    1.1700   11.6160 H     103  TIP92       0.2052
    472 H2         -6.8290    1.6000   11.1500 H     103  TIP92       0.2052
    473 OH2        -1.3880  -23.4930   23.8080 O.3   104  TIP93      -0.4105
    474 H1         -1.6000  -24.3640   23.4730 H     104  TIP93       0.2052
    475 H2         -0.6740  -23.6420   24.4280 H     104  TIP93       0.2052
    476 OH2        -0.9220   -4.4100   10.6250 O.3   105  TIP94      -0.4105
    477 H1         -0.0490   -4.0980   10.8640 H     105  TIP94       0.2052
    478 H2         -1.5070   -3.6900   10.8600 H     105  TIP94       0.2052
    479 OH2       -37.6980   -7.3630    8.2370 O.3   106  TIP95      -0.4105
    480 H1        -37.9220   -8.2470    8.5270 H     106  TIP95       0.2052
    481 H2        -37.5270   -7.4530    7.3000 H     106  TIP95       0.2052
    482 OH2         3.9990   -2.1890  -21.9990 O.3   107  TIP96      -0.4105
    483 H1          3.7070   -2.6340  -22.7950 H     107  TIP96       0.2052
    484 H2          4.6900   -2.7520  -21.6500 H     107  TIP96       0.2052
    485 OH2       -18.0130   -5.4190  -20.7620 O.3   108  TIP97      -0.4105
    486 H1        -17.2980   -4.9890  -21.2310 H     108  TIP97       0.2052
    487 H2        -18.7660   -4.8430  -20.8930 H     108  TIP97       0.2052
    488 OH2         2.8610  -10.5440   11.7830 O.3   109  TIP98      -0.4105
    489 H1          3.6790  -10.9910   11.5670 H     109  TIP98       0.2052
    490 H2          2.8960  -10.4240   12.7320 H     109  TIP98       0.2052
    491 OH2        -8.3860    0.5910    1.5930 O.3   110  TIP99      -0.4105
    492 H1         -7.5120    0.8000    1.2610 H     110  TIP99       0.2052
    493 H2         -8.2340    0.2610    2.4790 H     110  TIP99       0.2052
    494 OH2       -19.4090  -23.7050  -22.5150 O.3   111  TIP100     -0.4105
    495 H1        -20.2940  -23.3470  -22.4530 H     111  TIP100      0.2052
    496 H2        -18.9810  -23.1720  -23.1850 H     111  TIP100      0.2052
    497 OH2        -2.5250   26.3270    7.0350 O.3   112  TIP101     -0.4105
    498 H1         -2.9510   25.4980    7.2530 H     112  TIP101      0.2052
    499 H2         -2.1340   26.1760    6.1740 H     112  TIP101      0.2052
    500 OH2         0.5090   -3.4450   20.9470 O.3   113  TIP102     -0.4105
    501 H1          0.2380   -2.8430   21.6410 H     113  TIP102      0.2052
    502 H2          0.7860   -2.8760   20.2300 H     113  TIP102      0.2052
    503 OH2       -24.9280   21.4600    1.1280 O.3   114  TIP103     -0.4105
    504 H1        -25.0110   20.7850    1.8020 H     114  TIP103      0.2052
    505 H2        -24.8060   22.2740    1.6170 H     114  TIP103      0.2052
    506 OH2        18.9770    7.2680    5.4520 O.3   115  TIP104     -0.4105
    507 H1         18.8610    6.4680    5.9650 H     115  TIP104      0.2052
    508 H2         19.1560    6.9600    4.5640 H     115  TIP104      0.2052
    509 OH2       -24.9430    0.2860   12.8260 O.3   116  TIP105     -0.4105
    510 H1        -24.0600    0.6510   12.8690 H     116  TIP105      0.2052
    511 H2        -25.1410    0.0270   13.7260 H     116  TIP105      0.2052
    512 OH2        -4.4060   -1.0760   -5.2930 O.3   117  TIP106     -0.4105
    513 H1         -4.2960   -1.6840   -6.0240 H     117  TIP106      0.2052
    514 H2         -5.1620   -1.4120   -4.8120 H     117  TIP106      0.2052
    515 OH2        -5.7470   -7.5850   -2.5480 O.3   118  TIP107     -0.4105
    516 H1         -4.9440   -7.9700   -2.1980 H     118  TIP107      0.2052
    517 H2         -5.4530   -7.0330   -3.2730 H     118  TIP107      0.2052
    518 OH2       -13.6750   -3.4260   20.5960 O.3   119  TIP108     -0.4105
    519 H1        -13.0040   -3.9190   21.0660 H     119  TIP108      0.2052
    520 H2        -14.1130   -4.0780   20.0480 H     119  TIP108      0.2052
    521 OH2         4.2510  -18.2990    3.4200 O.3   120  TIP109     -0.4105
    522 H1          4.4770  -17.5190    2.9150 H     120  TIP109      0.2052
    523 H2          5.0710  -18.5590    3.8400 H     120  TIP109      0.2052
    524 OH2         9.9160   -0.3800   12.4030 O.3   121  TIP110     -0.4105
    525 H1         10.8050   -0.6100   12.6750 H     121  TIP110      0.2052
    526 H2          9.7950   -0.8370   11.5710 H     121  TIP110      0.2052
    527 OH2         6.6940   15.0470    3.9250 O.3   122  TIP111     -0.4105
    528 H1          6.0160   14.4370    4.2150 H     122  TIP111      0.2052
    529 H2          7.5170   14.5860    4.0870 H     122  TIP111      0.2052
    530 OH2        -3.9590  -10.2010    0.5320 O.3   123  TIP112     -0.4105
    531 H1         -4.2810  -10.0770   -0.3610 H     123  TIP112      0.2052
    532 H2         -3.2380   -9.5780    0.6170 H     123  TIP112      0.2052
    533 OH2        10.5780    6.8210    9.6970 O.3   124  TIP113     -0.4105
    534 H1          9.8980    6.6980    9.0360 H     124  TIP113      0.2052
    535 H2         10.3310    7.6280   10.1490 H     124  TIP113      0.2052
    536 OH2        10.0710    5.4560   -9.8200 O.3   125  TIP114     -0.4105
    537 H1         10.2420    6.3200   -9.4450 H     125  TIP114      0.2052
    538 H2         10.9350    5.1250  -10.0660 H     125  TIP114      0.2052
    539 OH2         8.1790   -1.5660   -7.5710 O.3   126  TIP115     -0.4105
    540 H1          8.6480   -1.9440   -8.3150 H     126  TIP115      0.2052
    541 H2          8.6580   -0.7620   -7.3700 H     126  TIP115      0.2052
    542 OH2        20.9380    7.6190   14.5400 O.3   127  TIP116     -0.4105
    543 H1         21.3180    6.7480   14.6600 H     127  TIP116      0.2052
    544 H2         21.4140    8.1750   15.1570 H     127  TIP116      0.2052
    545 OH2       -18.7650   -7.1890    9.9030 O.3   128  TIP117     -0.4105
    546 H1        -18.7340   -8.1130    9.6560 H     128  TIP117      0.2052
    547 H2        -19.0920   -6.7430    9.1220 H     128  TIP117      0.2052
    548 OH2        23.0850    0.5100    9.7230 O.3   129  TIP118     -0.4105
    549 H1         23.1940    1.4550    9.8280 H     129  TIP118      0.2052
    550 H2         22.7890    0.4020    8.8190 H     129  TIP118      0.2052
    551 OH2        14.9050   -1.8080    7.5050 O.3   130  TIP119     -0.4105
    552 H1         14.0930   -1.8650    7.0020 H     130  TIP119      0.2052
    553 H2         15.4970   -2.4250    7.0760 H     130  TIP119      0.2052
    554 OH2       -22.9490    9.1660   -8.6490 O.3   131  TIP120     -0.4105
    555 H1        -23.2350    9.9660   -9.0900 H     131  TIP120      0.2052
    556 H2        -22.4320    9.4740   -7.9040 H     131  TIP120      0.2052
    557 OH2        13.0360   -0.9300   -3.7960 O.3   132  TIP121     -0.4105
    558 H1         13.5450   -1.4760   -4.3950 H     132  TIP121      0.2052
    559 H2         12.6980   -1.5410   -3.1410 H     132  TIP121      0.2052
    560 OH2         3.0280   22.0460   13.3710 O.3   133  TIP122     -0.4105
    561 H1          2.9930   22.7040   12.6760 H     133  TIP122      0.2052
    562 H2          3.3160   21.2470   12.9290 H     133  TIP122      0.2052
    563 OH2        12.4800  -15.6440   21.2490 O.3   134  TIP123     -0.4105
    564 H1         12.6360  -16.4930   21.6630 H     134  TIP123      0.2052
    565 H2         13.0820  -15.6260   20.5050 H     134  TIP123      0.2052
    566 OH2         2.9970   25.3230    4.5820 O.3   135  TIP124     -0.4105
    567 H1          3.1530   25.8830    3.8220 H     135  TIP124      0.2052
    568 H2          3.1320   25.8990    5.3350 H     135  TIP124      0.2052
    569 OH2         1.2210   15.9400  -20.4970 O.3   136  TIP125     -0.4105
    570 H1          1.7620   15.7990  -19.7210 H     136  TIP125      0.2052
    571 H2          1.6700   16.6340  -20.9800 H     136  TIP125      0.2052
    572 OH2        15.6870  -16.9920    9.4780 O.3   137  TIP126     -0.4105
    573 H1         15.9120  -16.0700    9.6020 H     137  TIP126      0.2052
    574 H2         15.8120  -17.1460    8.5420 H     137  TIP126      0.2052
    575 OH2        -8.7670  -26.5920  -14.3240 O.3   138  TIP127     -0.4105
    576 H1         -8.1280  -26.8950  -14.9690 H     138  TIP127      0.2052
    577 H2         -9.1160  -27.3950  -13.9370 H     138  TIP127      0.2052
    578 OH2       -22.1120    2.9910   -3.2540 O.3   139  TIP128     -0.4105
    579 H1        -21.3490    2.7350   -3.7730 H     139  TIP128      0.2052
    580 H2        -22.8550    2.5980   -3.7110 H     139  TIP128      0.2052
    581 OH2         9.0190  -17.1400   20.0840 O.3   140  TIP129     -0.4105
    582 H1          8.2170  -16.9790   20.5810 H     140  TIP129      0.2052
    583 H2          9.3760  -16.2680   19.9150 H     140  TIP129      0.2052
    584 OH2       -14.7780   12.3050  -11.2990 O.3   141  TIP130     -0.4105
    585 H1        -15.2170   11.5260  -11.6410 H     141  TIP130      0.2052
    586 H2        -14.4880   12.0530  -10.4230 H     141  TIP130      0.2052
    587 OH2        -3.3130   -5.5260  -20.7760 O.3   142  TIP131     -0.4105
    588 H1         -2.8280   -6.1370  -20.2210 H     142  TIP131      0.2052
    589 H2         -2.9430   -5.6480  -21.6500 H     142  TIP131      0.2052
    590 OH2        25.0570    7.0550   -0.3690 O.3   143  TIP132     -0.4105
    591 H1         25.7820    7.3450    0.1840 H     143  TIP132      0.2052
    592 H2         25.4780    6.5820   -1.0880 H     143  TIP132      0.2052
    593 OH2         7.0770  -30.8980  -11.6850 O.3   144  TIP133     -0.4105
    594 H1          6.4620  -31.2620  -11.0480 H     144  TIP133      0.2052
    595 H2          6.5620  -30.2590  -12.1770 H     144  TIP133      0.2052
    596 OH2       -27.7450    2.4850   14.6280 O.3   145  TIP134     -0.4105
    597 H1        -28.4240    2.4560   13.9540 H     145  TIP134      0.2052
    598 H2        -28.1790    2.1640   15.4190 H     145  TIP134      0.2052
    599 OH2       -13.2490  -18.9950  -31.0330 O.3   146  TIP135     -0.4105
    600 H1        -12.3550  -19.3190  -30.9250 H     146  TIP135      0.2052
    601 H2        -13.1590  -18.2190  -31.5860 H     146  TIP135      0.2052
    602 OH2        14.6080    0.7090   21.7200 O.3   147  TIP136     -0.4105
    603 H1         14.0840   -0.0360   22.0150 H     147  TIP136      0.2052
    604 H2         14.9530    1.0940   22.5260 H     147  TIP136      0.2052
    605 OH2       -23.5550   13.8290    7.7900 O.3   148  TIP137     -0.4105
    606 H1        -23.4520   13.6890    6.8480 H     148  TIP137      0.2052
    607 H2        -23.0080   13.1560    8.1940 H     148  TIP137      0.2052
    608 OH2       -12.6290   29.8340   -2.2210 O.3   149  TIP138     -0.4105
    609 H1        -12.1970   29.3310   -2.9110 H     149  TIP138      0.2052
    610 H2        -12.2640   30.7150   -2.3010 H     149  TIP138      0.2052
    611 OH2       -12.5320  -21.1780  -19.7170 O.3   150  TIP139     -0.4105
    612 H1        -13.1430  -21.0420  -20.4410 H     150  TIP139      0.2052
    613 H2        -11.7820  -20.6230  -19.9280 H     150  TIP139      0.2052
    614 OH2         2.6200   -8.7680   28.2980 O.3   151  TIP140     -0.4105
    615 H1          3.4950   -8.9250   27.9430 H     151  TIP140      0.2052
    616 H2          2.1740   -9.6110   28.2170 H     151  TIP140      0.2052
    617 OH2       -10.0810   -1.6790    8.1610 O.3   152  TIP141     -0.4105
    618 H1         -9.2300   -1.2840    8.3480 H     152  TIP141      0.2052
    619 H2        -10.3580   -1.2740    7.3390 H     152  TIP141      0.2052
    620 OH2        21.6040   12.0330  -13.8550 O.3   153  TIP142     -0.4105
    621 H1         20.8430   11.4790  -14.0300 H     153  TIP142      0.2052
    622 H2         21.2330   12.8720  -13.5820 H     153  TIP142      0.2052
    623 OH2        21.9070  -21.4930   -6.0870 O.3   154  TIP143     -0.4105
    624 H1         22.7350  -21.9620   -6.1900 H     154  TIP143      0.2052
    625 H2         21.3450  -22.1000   -5.6050 H     154  TIP143      0.2052
    626 OH2        -3.2380    5.5040  -25.6490 O.3   155  TIP144     -0.4105
    627 H1         -3.4370    4.7760  -26.2370 H     155  TIP144      0.2052
    628 H2         -4.0890    5.7720  -25.3020 H     155  TIP144      0.2052
    629 OH2        17.4650   10.9450   -7.8240 O.3   156  TIP145     -0.4105
    630 H1         16.5690   10.6730   -8.0270 H     156  TIP145      0.2052
    631 H2         17.7090   11.5260   -8.5440 H     156  TIP145      0.2052
    632 OH2         9.3910   23.8880   14.5960 O.3   157  TIP146     -0.4105
    633 H1         10.3180   23.9740   14.3720 H     157  TIP146      0.2052
    634 H2          8.9290   24.0610   13.7750 H     157  TIP146      0.2052
    635 OH2        -1.7540   20.9490  -25.2530 O.3   158  TIP147     -0.4105
    636 H1         -1.4360   20.4750  -26.0220 H     158  TIP147      0.2052
    637 H2         -2.4190   21.5450  -25.5960 H     158  TIP147      0.2052
    638 OH2         3.0600   -7.5180    8.8310 O.3   159  TIP148     -0.4105
    639 H1          3.4030   -7.7210    7.9610 H     159  TIP148      0.2052
    640 H2          2.4190   -8.2080    9.0030 H     159  TIP148      0.2052
    641 OH2       -20.4380   -0.1060   -4.7440 O.3   160  TIP149     -0.4105
    642 H1        -20.5700    0.8250   -4.9250 H     160  TIP149      0.2052
    643 H2        -21.2790   -0.5130   -4.9520 H     160  TIP149      0.2052
    644 OH2         0.4550   20.1710  -32.0790 O.3   161  TIP150     -0.4105
    645 H1          0.4700   21.1240  -31.9900 H     161  TIP150      0.2052
    646 H2          1.2580   19.9620  -32.5560 H     161  TIP150      0.2052
    647 OH2       -12.2220    1.4630  -17.0710 O.3   162  TIP151     -0.4105
    648 H1        -13.1390    1.6190  -17.2980 H     162  TIP151      0.2052
    649 H2        -11.8940    2.3210  -16.8010 H     162  TIP151      0.2052
    650 OH2       -17.4650  -23.1370  -17.2580 O.3   163  TIP152     -0.4105
    651 H1        -17.8230  -23.4340  -18.0950 H     163  TIP152      0.2052
    652 H2        -17.8450  -22.2680  -17.1290 H     163  TIP152      0.2052
    653 OH2        16.5270  -15.3550   -5.3580 O.3   164  TIP153     -0.4105
    654 H1         16.6210  -14.5750   -5.9030 H     164  TIP153      0.2052
    655 H2         16.8070  -16.0770   -5.9210 H     164  TIP153      0.2052
    656 OH2         9.1400   15.5800  -21.6630 O.3   165  TIP154     -0.4105
    657 H1          8.6620   15.3500  -22.4590 H     165  TIP154      0.2052
    658 H2          8.5470   15.3410  -20.9500 H     165  TIP154      0.2052
    659 OH2        13.1410    6.3270   -6.1430 O.3   166  TIP155     -0.4105
    660 H1         13.5000    6.6320   -5.3100 H     166  TIP155      0.2052
    661 H2         13.8350    5.7860   -6.5200 H     166  TIP155      0.2052
    662 OH2        -3.4390   -3.5730   -2.8740 O.3   167  TIP156     -0.4105
    663 H1         -2.9790   -3.0660   -3.5430 H     167  TIP156      0.2052
    664 H2         -2.9540   -3.4020   -2.0670 H     167  TIP156      0.2052
    665 OH2         1.3570   16.0550   12.0790 O.3   168  TIP157     -0.4105
    666 H1          1.9320   16.4680   12.7230 H     168  TIP157      0.2052
    667 H2          0.5730   15.8190   12.5750 H     168  TIP157      0.2052
    668 OH2         3.5550  -21.3470   28.4060 O.3   169  TIP158     -0.4105
    669 H1          2.9100  -20.6570   28.2500 H     169  TIP158      0.2052
    670 H2          4.3930  -20.8860   28.4500 H     169  TIP158      0.2052
    671 OH2         1.4430  -17.6130    2.8710 O.3   170  TIP159     -0.4105
    672 H1          2.2280  -17.9780    3.2810 H     170  TIP159      0.2052
    673 H2          1.7730  -17.1140    2.1230 H     170  TIP159      0.2052
    674 OH2       -13.4240  -15.9870   28.1450 O.3   171  TIP160     -0.4105
    675 H1        -12.9030  -15.2530   27.8200 H     171  TIP160      0.2052
    676 H2        -14.3240  -15.6610   28.1440 H     171  TIP160      0.2052
    677 OH2        12.6160   18.4020   28.7080 O.3   172  TIP161     -0.4105
    678 H1         13.0350   19.1320   28.2530 H     172  TIP161      0.2052
    679 H2         12.6970   18.6200   29.6370 H     172  TIP161      0.2052
    680 OH2        19.1670  -28.1490   -1.6190 O.3   173  TIP162     -0.4105
    681 H1         18.6840  -28.9370   -1.8680 H     173  TIP162      0.2052
    682 H2         20.0460  -28.2840   -1.9730 H     173  TIP162      0.2052
    683 OH2        -5.3560   -0.4400    8.2720 O.3   174  TIP163     -0.4105
    684 H1         -6.0040   -0.1610    7.6250 H     174  TIP163      0.2052
    685 H2         -5.7490   -0.2190    9.1170 H     174  TIP163      0.2052
    686 OH2       -22.1960    5.5860   12.8360 O.3   175  TIP164     -0.4105
    687 H1        -21.7010    5.2990   13.6030 H     175  TIP164      0.2052
    688 H2        -22.1000    4.8710   12.2070 H     175  TIP164      0.2052
    689 OH2        -1.6800  -15.4050   17.9500 O.3   176  TIP165     -0.4105
    690 H1         -0.8780  -15.8960   18.1290 H     176  TIP165      0.2052
    691 H2         -2.0870  -15.8690   17.2180 H     176  TIP165      0.2052
    692 OH2        -8.6310   26.7130   -1.5050 O.3   177  TIP166     -0.4105
    693 H1         -7.7060   26.9310   -1.6130 H     177  TIP166      0.2052
    694 H2         -8.7520   25.9160   -2.0210 H     177  TIP166      0.2052
    695 OH2         1.6710   21.5730    5.4000 O.3   178  TIP167     -0.4105
    696 H1          0.9760   22.1840    5.1550 H     178  TIP167      0.2052
    697 H2          2.4810   22.0190    5.1540 H     178  TIP167      0.2052
    698 OH2        17.8010   14.0650  -19.6940 O.3   179  TIP168     -0.4105
    699 H1         18.1920   14.6050  -19.0070 H     179  TIP168      0.2052
    700 H2         16.8900   13.9540  -19.4220 H     179  TIP168      0.2052
    701 OH2         4.1860   25.7160   -1.4600 O.3   180  TIP169     -0.4105
    702 H1          4.2890   25.2910   -0.6090 H     180  TIP169      0.2052
    703 H2          3.7250   26.5330   -1.2670 H     180  TIP169      0.2052
    704 OH2       -18.4460   12.5710    3.4900 O.3   181  TIP170     -0.4105
    705 H1        -18.9230   11.9770    2.9110 H     181  TIP170      0.2052
    706 H2        -18.9370   12.5500    4.3110 H     181  TIP170      0.2052
    707 OH2        24.6780    7.4230  -13.9320 O.3   182  TIP171     -0.4105
    708 H1         25.0790    6.7560  -13.3750 H     182  TIP171      0.2052
    709 H2         25.2980    7.5370  -14.6530 H     182  TIP171      0.2052
    710 OH2        -6.0650  -19.4370   28.9420 O.3   183  TIP172     -0.4105
    711 H1         -6.1590  -19.5990   28.0030 H     183  TIP172      0.2052
    712 H2         -5.2640  -19.9000   29.1870 H     183  TIP172      0.2052
    713 OH2       -10.4590    0.4530  -21.5360 O.3   184  TIP173     -0.4105
    714 H1        -10.7070    0.9150  -22.3370 H     184  TIP173      0.2052
    715 H2         -9.9890    1.1060  -21.0180 H     184  TIP173      0.2052
    716 OH2       -10.8420   -5.1100   21.5470 O.3   185  TIP174     -0.4105
    717 H1        -10.3590   -4.8090   22.3160 H     185  TIP174      0.2052
    718 H2        -10.7390   -6.0610   21.5560 H     185  TIP174      0.2052
    719 OH2        16.5710   15.3960   -9.9440 O.3   186  TIP175     -0.4105
    720 H1         16.7040   16.3370  -10.0540 H     186  TIP175      0.2052
    721 H2         17.1140   15.1640   -9.1900 H     186  TIP175      0.2052
    722 OH2       -14.8070  -11.6700    6.3910 O.3   187  TIP176     -0.4105
    723 H1        -14.2320  -10.9090    6.3090 H     187  TIP176      0.2052
    724 H2        -14.9250  -11.7800    7.3350 H     187  TIP176      0.2052
    725 OH2         5.6460    8.3650  -15.0800 O.3   188  TIP177     -0.4105
    726 H1          6.5400    8.0240  -15.0830 H     188  TIP177      0.2052
    727 H2          5.6730    9.1040  -14.4730 H     188  TIP177      0.2052
    728 OH2       -12.8720   -1.7820   17.2540 O.3   189  TIP178     -0.4105
    729 H1        -13.5040   -1.1770   16.8670 H     189  TIP178      0.2052
    730 H2        -12.0210   -1.3690   17.1040 H     189  TIP178      0.2052
    731 OH2       -25.8290   -3.9410   15.3960 O.3   190  TIP179     -0.4105
    732 H1        -25.3760   -4.3450   14.6560 H     190  TIP179      0.2052
    733 H2        -25.1850   -3.9460   16.1040 H     190  TIP179      0.2052
    734 OH2        16.4580    7.6930   -2.0010 O.3   191  TIP180     -0.4105
    735 H1         16.6310    8.1230   -1.1630 H     191  TIP180      0.2052
    736 H2         16.5810    8.3810   -2.6540 H     191  TIP180      0.2052
    737 OH2        11.1430  -11.6670   22.8720 O.3   192  TIP181     -0.4105
    738 H1         11.5820  -11.9270   23.6820 H     192  TIP181      0.2052
    739 H2         11.6340  -10.9040   22.5670 H     192  TIP181      0.2052
    740 OH2        12.7930   14.1350  -22.9940 O.3   193  TIP182     -0.4105
    741 H1         12.2790   14.9090  -22.7620 H     193  TIP182      0.2052
    742 H2         13.6980   14.4460  -23.0170 H     193  TIP182      0.2052
    743 OH2        24.2410  -22.0800    4.2020 O.3   194  TIP183     -0.4105
    744 H1         23.5390  -22.1940    3.5610 H     194  TIP183      0.2052
    745 H2         24.0610  -22.7360    4.8750 H     194  TIP183      0.2052
    746 OH2         7.1010   -7.0290  -14.2500 O.3   195  TIP184     -0.4105
    747 H1          6.2230   -7.0920  -13.8730 H     195  TIP184      0.2052
    748 H2          7.3330   -7.9320  -14.4670 H     195  TIP184      0.2052
    749 OH2        19.8930  -18.4720   -5.2010 O.3   196  TIP185     -0.4105
    750 H1         20.7570  -18.3510   -4.8070 H     196  TIP185      0.2052
    751 H2         19.3240  -18.7000   -4.4660 H     196  TIP185      0.2052
    752 OH2       -15.7080    0.3590   11.0620 O.3   197  TIP186     -0.4105
    753 H1        -16.4040   -0.1800   11.4370 H     197  TIP186      0.2052
    754 H2        -15.8350    1.2220   11.4560 H     197  TIP186      0.2052
    755 OH2        -4.5270   -4.5830   27.6850 O.3   198  TIP187     -0.4105
    756 H1         -4.4410   -5.3670   27.1420 H     198  TIP187      0.2052
    757 H2         -4.5590   -4.9160   28.5820 H     198  TIP187      0.2052
    758 OH2        -1.4520   17.9960  -31.0250 O.3   199  TIP188     -0.4105
    759 H1         -0.8670   18.6880  -31.3340 H     199  TIP188      0.2052
    760 H2         -0.8880   17.4160  -30.5130 H     199  TIP188      0.2052
    761 OH2       -16.9450  -18.8890   14.8250 O.3   200  TIP189     -0.4105
    762 H1        -16.0890  -18.4620   14.8000 H     200  TIP189      0.2052
    763 H2        -17.4510  -18.4540   14.1390 H     200  TIP189      0.2052
    764 OH2       -10.3500   -9.2170  -27.0850 O.3   201  TIP190     -0.4105
    765 H1         -9.5770   -9.0620  -27.6270 H     201  TIP190      0.2052
    766 H2        -10.9460   -9.7080  -27.6510 H     201  TIP190      0.2052
    767 OH2         2.5580  -18.2690   20.8010 O.3   202  TIP191     -0.4105
    768 H1          3.3710  -18.3720   20.3060 H     202  TIP191      0.2052
    769 H2          2.8440  -18.0390   21.6850 H     202  TIP191      0.2052
    770 OH2       -22.6490   10.3970   -0.9780 O.3   203  TIP192     -0.4105
    771 H1        -23.2930   10.7940   -1.5650 H     203  TIP192      0.2052
    772 H2        -21.9680   11.0630   -0.8840 H     203  TIP192      0.2052
    773 OH2        27.5610    8.2790   -8.7930 O.3   204  TIP193     -0.4105
    774 H1         27.2110    7.9370   -7.9700 H     204  TIP193      0.2052
    775 H2         28.1410    7.5880   -9.1130 H     204  TIP193      0.2052
    776 OH2       -13.9820    4.3640  -12.6800 O.3   205  TIP194     -0.4105
    777 H1        -14.4720    5.0330  -12.2010 H     205  TIP194      0.2052
    778 H2        -14.6020    4.0300  -13.3280 H     205  TIP194      0.2052
    779 OH2       -26.6750   13.6480   -3.1150 O.3   206  TIP195     -0.4105
    780 H1        -26.5250   14.3410   -3.7570 H     206  TIP195      0.2052
    781 H2        -27.4690   13.9160   -2.6520 H     206  TIP195      0.2052
    782 OH2       -11.2970   13.4870  -12.0870 O.3   207  TIP196     -0.4105
    783 H1        -11.3160   12.9580  -11.2900 H     207  TIP196      0.2052
    784 H2        -10.6010   14.1260  -11.9350 H     207  TIP196      0.2052
    785 OH2        10.6190    0.3930  -14.5620 O.3   208  TIP197     -0.4105
    786 H1         10.0310    0.4030  -15.3170 H     208  TIP197      0.2052
    787 H2         11.2440   -0.3060  -14.7540 H     208  TIP197      0.2052
    788 OH2         5.0050    8.3520   15.6600 O.3   209  TIP198     -0.4105
    789 H1          4.8780    9.2340   16.0070 H     209  TIP198      0.2052
    790 H2          4.3040    8.2420   15.0190 H     209  TIP198      0.2052
    791 OH2        -1.5420  -13.0130  -20.4700 O.3   210  TIP199     -0.4105
    792 H1         -2.0580  -12.9640  -21.2750 H     210  TIP199      0.2052
    793 H2         -0.7140  -12.5850  -20.6900 H     210  TIP199      0.2052
    794 OH2        17.6130   10.2440  -17.0090 O.3   211  TIP200     -0.4105
    795 H1         16.9690   10.2180  -17.7170 H     211  TIP200      0.2052
    796 H2         18.4520   10.0920  -17.4430 H     211  TIP200      0.2052
    797 OH2        -3.8040  -25.5730   -3.9010 O.3   212  TIP201     -0.4105
    798 H1         -3.1800  -25.6410   -3.1790 H     212  TIP201      0.2052
    799 H2         -3.2850  -25.2470   -4.6360 H     212  TIP201      0.2052
    800 OH2        -7.7120  -10.5720   -0.8220 O.3   213  TIP202     -0.4105
    801 H1         -7.4890  -10.1390   -1.6460 H     213  TIP202      0.2052
    802 H2         -7.2760  -11.4230   -0.8720 H     213  TIP202      0.2052
    803 OH2       -34.9650   -2.8560    8.4750 O.3   214  TIP203     -0.4105
    804 H1        -35.3720   -3.1000    7.6430 H     214  TIP203      0.2052
    805 H2        -34.0910   -2.5510    8.2340 H     214  TIP203      0.2052
    806 OH2       -10.9200    1.8910  -10.5720 O.3   215  TIP204     -0.4105
    807 H1        -11.2700    1.0040  -10.4900 H     215  TIP204      0.2052
    808 H2         -9.9720    1.7840  -10.4870 H     215  TIP204      0.2052
    809 OH2       -11.8830    1.7150    7.0390 O.3   216  TIP205     -0.4105
    810 H1        -12.0570    1.5890    6.1060 H     216  TIP205      0.2052
    811 H2        -12.2850    0.9570    7.4630 H     216  TIP205      0.2052
    812 OH2       -11.1610   17.0880  -22.2680 O.3   217  TIP206     -0.4105
    813 H1        -10.3360   16.7280  -22.5950 H     217  TIP206      0.2052
    814 H2        -11.6580   17.3030  -23.0570 H     217  TIP206      0.2052
    815 OH2       -24.0540    0.7500    9.3250 O.3   218  TIP207     -0.4105
    816 H1        -23.7000    1.5220    8.8830 H     218  TIP207      0.2052
    817 H2        -24.8320    0.5190    8.8170 H     218  TIP207      0.2052
    818 OH2        -1.2520   10.1210    0.6640 O.3   219  TIP208     -0.4105
    819 H1         -2.1680   10.3870    0.7530 H     219  TIP208      0.2052
    820 H2         -1.0630   10.2200   -0.2690 H     219  TIP208      0.2052
    821 OH2         0.0830   -3.3370  -13.0720 O.3   220  TIP209     -0.4105
    822 H1          0.5760   -2.7970  -12.4550 H     220  TIP209      0.2052
    823 H2          0.2540   -4.2370  -12.7930 H     220  TIP209      0.2052
    824 OH2        -4.9540    0.9240  -16.8120 O.3   221  TIP210     -0.4105
    825 H1         -4.1030    1.3430  -16.6880 H     221  TIP210      0.2052
    826 H2         -4.7460    0.0060  -16.9860 H     221  TIP210      0.2052
    827 OH2         7.8560    3.8490  -24.0670 O.3   222  TIP211     -0.4105
    828 H1          8.6070    3.2750  -24.2130 H     222  TIP211      0.2052
    829 H2          7.1010    3.2600  -24.0610 H     222  TIP211      0.2052
    830 OH2       -19.5190  -21.2100  -24.0220 O.3   223  TIP212     -0.4105
    831 H1        -19.3800  -21.7120  -24.8250 H     223  TIP212      0.2052
    832 H2        -18.6380  -20.9720  -23.7320 H     223  TIP212      0.2052
    833 OH2       -13.0720   27.3290    8.4240 O.3   224  TIP213     -0.4105
    834 H1        -13.4230   27.2830    9.3130 H     224  TIP213      0.2052
    835 H2        -12.1590   27.0570    8.5120 H     224  TIP213      0.2052
    836 OH2       -12.3440    3.6030  -23.3270 O.3   225  TIP214     -0.4105
    837 H1        -11.7940    3.9440  -22.6210 H     225  TIP214      0.2052
    838 H2        -11.7420    3.1070  -23.8820 H     225  TIP214      0.2052
    839 OH2       -12.6010   -3.3550  -11.7110 O.3   226  TIP215     -0.4105
    840 H1        -12.4730   -3.1030  -12.6260 H     226  TIP215      0.2052
    841 H2        -12.5770   -4.3120  -11.7200 H     226  TIP215      0.2052
    842 OH2        -5.7290  -17.9930   -6.1300 O.3   227  TIP216     -0.4105
    843 H1         -5.7460  -17.4180   -5.3640 H     227  TIP216      0.2052
    844 H2         -6.0080  -17.4340   -6.8550 H     227  TIP216      0.2052
    845 OH2         5.0050   10.0910    3.5680 O.3   228  TIP217     -0.4105
    846 H1          4.8890    9.1880    3.8640 H     228  TIP217      0.2052
    847 H2          4.1590   10.3280    3.1880 H     228  TIP217      0.2052
    848 OH2         0.6120    7.5600   -3.7560 O.3   229  TIP218     -0.4105
    849 H1          1.2170    6.9810   -4.2200 H     229  TIP218      0.2052
    850 H2         -0.2190    7.4590   -4.2200 H     229  TIP218      0.2052
    851 OH2        26.6800   10.1510   10.7330 O.3   230  TIP219     -0.4105
    852 H1         26.5980   10.9090   11.3120 H     230  TIP219      0.2052
    853 H2         25.8650   10.1430   10.2320 H     230  TIP219      0.2052
    854 OH2        -3.3160   31.5980   13.4580 O.3   231  TIP220     -0.4105
    855 H1         -4.0940   31.8960   12.9860 H     231  TIP220      0.2052
    856 H2         -2.7740   32.3820   13.5460 H     231  TIP220      0.2052
    857 OH2        31.1420   -5.4060   -4.1430 O.3   232  TIP221     -0.4105
    858 H1         31.6190   -6.1570   -4.4950 H     232  TIP221      0.2052
    859 H2         30.2940   -5.7630   -3.8780 H     232  TIP221      0.2052
    860 OH2         7.8610  -11.9570   16.5860 O.3   233  TIP222     -0.4105
    861 H1          6.9400  -12.1070   16.8000 H     233  TIP222      0.2052
    862 H2          7.8430  -11.2820   15.9070 H     233  TIP222      0.2052
    863 OH2         2.5610  -12.4100   17.1090 O.3   234  TIP223     -0.4105
    864 H1          2.0910  -12.8970   16.4330 H     234  TIP223      0.2052
    865 H2          3.3800  -12.8920   17.2270 H     234  TIP223      0.2052
    866 OH2         7.9710    2.1340   -7.5580 O.3   235  TIP224     -0.4105
    867 H1          8.4330    2.3180   -8.3760 H     235  TIP224      0.2052
    868 H2          8.0070    2.9570   -7.0710 H     235  TIP224      0.2052
    869 OH2       -20.3850   10.5800   15.9040 O.3   236  TIP225     -0.4105
    870 H1        -20.7330    9.7260   15.6470 H     236  TIP225      0.2052
    871 H2        -19.6020   10.6930   15.3660 H     236  TIP225      0.2052
    872 OH2        12.7050  -23.7130   16.1800 O.3   237  TIP226     -0.4105
    873 H1         12.0850  -23.4190   15.5120 H     237  TIP226      0.2052
    874 H2         12.3070  -23.4490   17.0100 H     237  TIP226      0.2052
    875 OH2       -19.8980   29.1610    4.2420 O.3   238  TIP227     -0.4105
    876 H1        -19.7650   28.2140    4.2700 H     238  TIP227      0.2052
    877 H2        -19.1080   29.5260    4.6420 H     238  TIP227      0.2052
    878 OH2       -22.5580   14.0030   -0.8760 O.3   239  TIP228     -0.4105
    879 H1        -21.6740   13.6590   -0.7420 H     239  TIP228      0.2052
    880 H2        -22.4220   14.8820   -1.2300 H     239  TIP228      0.2052
    881 OH2        11.0180    3.8480    1.9130 O.3   240  TIP229     -0.4105
    882 H1         11.6710    3.4250    2.4700 H     240  TIP229      0.2052
    883 H2         11.0900    3.3940    1.0730 H     240  TIP229      0.2052
    884 OH2       -15.9250  -21.1140   -3.9050 O.3   241  TIP230     -0.4105
    885 H1        -16.1490  -21.4450   -3.0360 H     241  TIP230      0.2052
    886 H2        -16.3860  -21.6950   -4.5100 H     241  TIP230      0.2052
    887 OH2         2.7920    5.9400   -4.8890 O.3   242  TIP231     -0.4105
    888 H1          2.1800    5.7070   -5.5870 H     242  TIP231      0.2052
    889 H2          2.6200    5.3010   -4.1970 H     242  TIP231      0.2052
    890 OH2        20.0890  -22.7260   -2.9850 O.3   243  TIP232     -0.4105
    891 H1         20.1950  -23.3810   -3.6740 H     243  TIP232      0.2052
    892 H2         20.4900  -23.1240   -2.2120 H     243  TIP232      0.2052
    893 OH2       -13.4450   21.1680   -4.3940 O.3   244  TIP233     -0.4105
    894 H1        -13.5930   20.8480   -5.2840 H     244  TIP233      0.2052
    895 H2        -12.4970   21.1150   -4.2750 H     244  TIP233      0.2052
    896 OH2         4.8490   -1.6930   27.5180 O.3   245  TIP234     -0.4105
    897 H1          5.4730   -2.4180   27.4940 H     245  TIP234      0.2052
    898 H2          5.2640   -1.0020   27.0010 H     245  TIP234      0.2052
    899 OH2        -4.0680   22.1820  -26.3040 O.3   246  TIP235     -0.4105
    900 H1         -5.0060   22.3730  -26.3350 H     246  TIP235      0.2052
    901 H2         -3.7830   22.2310  -27.2170 H     246  TIP235      0.2052
    902 OH2        19.5720  -19.9460    6.3980 O.3   247  TIP236     -0.4105
    903 H1         19.0700  -20.7520    6.5230 H     247  TIP236      0.2052
    904 H2         20.4130  -20.1200    6.8200 H     247  TIP236      0.2052
    905 OH2        10.4310  -17.2740    9.0600 O.3   248  TIP237     -0.4105
    906 H1         10.3640  -17.8160    9.8460 H     248  TIP237      0.2052
    907 H2         11.0010  -17.7710    8.4740 H     248  TIP237      0.2052
    908 OH2         9.6300  -31.9240   -4.1980 O.3   249  TIP238     -0.4105
    909 H1          8.7000  -31.7180   -4.2880 H     249  TIP238      0.2052
    910 H2          9.7680  -32.0090   -3.2550 H     249  TIP238      0.2052
    911 OH2       -31.8560  -13.7730    8.9960 O.3   250  TIP239     -0.4105
    912 H1        -32.1570  -12.8660    8.9520 H     250  TIP239      0.2052
    913 H2        -30.9170  -13.7230    8.8150 H     250  TIP239      0.2052
    914 OH2        35.3730    7.9980   -8.2250 O.3   251  TIP240     -0.4105
    915 H1         36.0450    7.3760   -8.5070 H     251  TIP240      0.2052
    916 H2         35.0520    7.6440   -7.3950 H     251  TIP240      0.2052
    917 OH2         8.4920   -9.6830   21.1340 O.3   252  TIP241     -0.4105
    918 H1          7.9630   -9.0990   20.5900 H     252  TIP241      0.2052
    919 H2          9.2980   -9.1940   21.2990 H     252  TIP241      0.2052
    920 OH2        -9.2660    2.2340    7.5650 O.3   253  TIP242     -0.4105
    921 H1        -10.1850    2.0170    7.4080 H     253  TIP242      0.2052
    922 H2         -9.2840    3.1340    7.8910 H     253  TIP242      0.2052
    923 OH2       -11.3500   12.3360   -3.6410 O.3   254  TIP243     -0.4105
    924 H1        -12.1150   12.8390   -3.9190 H     254  TIP243      0.2052
    925 H2        -11.6680   11.4370   -3.5630 H     254  TIP243      0.2052
    926 OH2       -15.7220    1.0080   -0.8840 O.3   255  TIP244     -0.4105
    927 H1        -15.1820    0.7260   -0.1450 H     255  TIP244      0.2052
    928 H2        -15.1450    1.5670   -1.4040 H     255  TIP244      0.2052
    929 OH2         4.9690    0.6630  -11.1680 O.3   256  TIP245     -0.4105
    930 H1          4.2570    1.2430  -11.4390 H     256  TIP245      0.2052
    931 H2          4.5500    0.0210  -10.5940 H     256  TIP245      0.2052
    932 OH2         1.2730  -22.5330   -7.4920 O.3   257  TIP246     -0.4105
    933 H1          2.0320  -22.2200   -7.9840 H     257  TIP246      0.2052
    934 H2          0.7900  -23.0770   -8.1150 H     257  TIP246      0.2052
    935 OH2        -2.2910  -24.3390   -5.7230 O.3   258  TIP247     -0.4105
    936 H1         -1.4590  -24.2440   -5.2600 H     258  TIP247      0.2052
    937 H2         -2.2950  -23.6220   -6.3580 H     258  TIP247      0.2052
    938 OH2       -15.4070   -2.5430    2.5970 O.3   259  TIP248     -0.4105
    939 H1        -15.4870   -3.3620    2.1070 H     259  TIP248      0.2052
    940 H2        -16.0500   -1.9590    2.1950 H     259  TIP248      0.2052
    941 OH2       -13.7720   17.5510  -11.7560 O.3   260  TIP249     -0.4105
    942 H1        -14.3120   17.7060  -12.5310 H     260  TIP249      0.2052
    943 H2        -13.4340   16.6630  -11.8740 H     260  TIP249      0.2052
    944 OH2         3.9950    5.1120  -12.1160 O.3   261  TIP250     -0.4105
    945 H1          3.2180    5.6630  -12.2060 H     261  TIP250      0.2052
    946 H2          4.4180    5.1510  -12.9740 H     261  TIP250      0.2052
    947 OH2        10.9350   17.4400   15.2630 O.3   262  TIP251     -0.4105
    948 H1         11.3950   17.5340   16.0970 H     262  TIP251      0.2052
    949 H2         10.6960   18.3340   15.0180 H     262  TIP251      0.2052
    950 OH2       -18.7620   -9.1860   -0.1880 O.3   263  TIP252     -0.4105
    951 H1        -19.3930   -9.5170    0.4510 H     263  TIP252      0.2052
    952 H2        -19.1700   -8.3950   -0.5410 H     263  TIP252      0.2052
    953 OH2        17.1690   -7.3960   16.7470 O.3   264  TIP253     -0.4105
    954 H1         16.3290   -7.5590   17.1770 H     264  TIP253      0.2052
    955 H2         16.9470   -6.8720   15.9780 H     264  TIP253      0.2052
    956 OH2         1.7670  -11.3170   27.7750 O.3   265  TIP254     -0.4105
    957 H1          1.4220  -12.1990   27.9170 H     265  TIP254      0.2052
    958 H2          1.5070  -11.0990   26.8800 H     265  TIP254      0.2052
    959 OH2       -20.4600    9.5360  -10.6810 O.3   266  TIP255     -0.4105
    960 H1        -20.2330    8.8760  -10.0260 H     266  TIP255      0.2052
    961 H2        -21.0400    9.0790  -11.2900 H     266  TIP255      0.2052
    962 OH2       -16.9220  -11.0170   22.2970 O.3   267  TIP256     -0.4105
    963 H1        -16.8140  -11.0000   21.3470 H     267  TIP256      0.2052
    964 H2        -16.4090  -10.2730   22.6110 H     267  TIP256      0.2052
    965 OH2        -5.3820   10.8260   21.9120 O.3   268  TIP257     -0.4105
    966 H1         -4.4610   10.7610   21.6600 H     268  TIP257      0.2052
    967 H2         -5.5450   10.0390   22.4330 H     268  TIP257      0.2052
    968 OH2        -2.4900    1.5140   11.2850 O.3   269  TIP258     -0.4105
    969 H1         -1.6530    1.5520   11.7470 H     269  TIP258      0.2052
    970 H2         -2.6430    2.4120   10.9900 H     269  TIP258      0.2052
    971 OH2         4.8790   10.5030   -0.0610 O.3   270  TIP259     -0.4105
    972 H1          4.2950   11.2330   -0.2690 H     270  TIP259      0.2052
    973 H2          4.5280   10.1410    0.7530 H     270  TIP259      0.2052
    974 OH2         8.7830   10.8060  -12.4460 O.3   271  TIP260     -0.4105
    975 H1          8.4530   10.1500  -13.0600 H     271  TIP260      0.2052
    976 H2          8.7460   10.3750  -11.5920 H     271  TIP260      0.2052
    977 OH2         0.6810   14.2630    4.1530 O.3   272  TIP261     -0.4105
    978 H1         -0.1420   14.3680    4.6320 H     272  TIP261      0.2052
    979 H2          0.4610   14.4820    3.2480 H     272  TIP261      0.2052
    980 OH2        22.2490   -4.7130   10.9240 O.3   273  TIP262     -0.4105
    981 H1         22.2220   -5.5360   11.4120 H     273  TIP262      0.2052
    982 H2         21.9090   -4.0600   11.5360 H     273  TIP262      0.2052
    983 OH2         8.3770  -25.9420   -8.2940 O.3   274  TIP263     -0.4105
    984 H1          9.0570  -26.1410   -7.6500 H     274  TIP263      0.2052
    985 H2          8.6700  -25.1300   -8.7080 H     274  TIP263      0.2052
    986 OH2       -23.0750   -6.3060    7.1770 O.3   275  TIP264     -0.4105
    987 H1        -23.0060   -5.3660    7.0130 H     275  TIP264      0.2052
    988 H2        -23.7270   -6.6120    6.5460 H     275  TIP264      0.2052
    989 OH2         5.4930   -7.7390  -11.5920 O.3   276  TIP265     -0.4105
    990 H1          5.4000   -6.7910  -11.6880 H     276  TIP265      0.2052
    991 H2          5.2460   -7.9140  -10.6840 H     276  TIP265      0.2052
    992 OH2        16.5760  -32.6450    2.9860 O.3   277  TIP266     -0.4105
    993 H1         16.7670  -32.2390    3.8320 H     277  TIP266      0.2052
    994 H2         16.7240  -33.5790    3.1300 H     277  TIP266      0.2052
    995 OH2       -13.3620  -17.5500  -21.8790 O.3   278  TIP267     -0.4105
    996 H1        -14.2410  -17.9290  -21.8570 H     278  TIP267      0.2052
    997 H2        -13.1930  -17.2840  -20.9750 H     278  TIP267      0.2052
    998 OH2        20.2360   13.8170   14.5760 O.3   279  TIP268     -0.4105
    999 H1         19.8240   13.0680   15.0070 H     279  TIP268      0.2052
   1000 H2         19.6650   14.0090   13.8320 H     279  TIP268      0.2052
   1001 OH2       -11.1540  -18.5860    2.3950 O.3   280  TIP269     -0.4105
   1002 H1        -10.9390  -17.9920    1.6760 H     280  TIP269      0.2052
   1003 H2        -10.9660  -19.4590    2.0490 H     280  TIP269      0.2052
   1004 OH2         7.4240   24.4840    4.1630 O.3   281  TIP270     -0.4105
   1005 H1          7.5350   25.2470    3.5950 H     281  TIP270      0.2052
   1006 H2          7.0850   23.8010    3.5840 H     281  TIP270      0.2052
   1007 OH2        20.0350  -11.0320   -2.3990 O.3   282  TIP271     -0.4105
   1008 H1         20.4800  -11.3050   -1.5960 H     282  TIP271      0.2052
   1009 H2         19.5240  -11.7970   -2.6620 H     282  TIP271      0.2052
   1010 OH2        -9.7690   14.0040  -22.8200 O.3   283  TIP272     -0.4105
   1011 H1         -9.2540   13.2010  -22.7450 H     283  TIP272      0.2052
   1012 H2         -9.1210   14.6910  -22.9730 H     283  TIP272      0.2052
   1013 OH2        23.6510  -10.4230   -3.7420 O.3   284  TIP273     -0.4105
   1014 H1         23.5320   -9.8770   -4.5180 H     284  TIP273      0.2052
   1015 H2         23.2760  -11.2700   -3.9850 H     284  TIP273      0.2052
   1016 OH2         0.1170   10.8180   -7.3260 O.3   285  TIP274     -0.4105
   1017 H1         -0.7090   11.2860   -7.2030 H     285  TIP274      0.2052
   1018 H2          0.7680   11.5090   -7.4470 H     285  TIP274      0.2052
   1019 OH2         7.0980   -3.1790  -12.3350 O.3   286  TIP275     -0.4105
   1020 H1          6.5560   -3.0610  -11.5550 H     286  TIP275      0.2052
   1021 H2          6.6350   -2.7030  -13.0240 H     286  TIP275      0.2052
   1022 OH2        -5.0640   -4.2670    7.5270 O.3   287  TIP276     -0.4105
   1023 H1         -4.1320   -4.3250    7.3190 H     287  TIP276      0.2052
   1024 H2         -5.4410   -3.7680    6.8030 H     287  TIP276      0.2052
   1025 OH2        -0.3550  -14.8330   30.6110 O.3   288  TIP277     -0.4105
   1026 H1          0.2850  -15.4350   30.9920 H     288  TIP277      0.2052
   1027 H2         -1.1900  -15.0920   31.0000 H     288  TIP277      0.2052
   1028 OH2        -0.2470   16.3130   -4.0650 O.3   289  TIP278     -0.4105
   1029 H1          0.5780   16.0310   -3.6700 H     289  TIP278      0.2052
   1030 H2         -0.5860   15.5290   -4.4980 H     289  TIP278      0.2052
   1031 OH2        13.8780   -2.3170  -10.1860 O.3   290  TIP279     -0.4105
   1032 H1         14.2200   -1.4730   -9.8920 H     290  TIP279      0.2052
   1033 H2         13.2580   -2.0960  -10.8810 H     290  TIP279      0.2052
   1034 OH2         1.4930    1.2920  -29.8640 O.3   291  TIP280     -0.4105
   1035 H1          1.0620    0.4540  -29.6960 H     291  TIP280      0.2052
   1036 H2          0.9180    1.7380  -30.4850 H     291  TIP280      0.2052
   1037 OH2       -21.3730   18.1950   -0.6460 O.3   292  TIP281     -0.4105
   1038 H1        -20.5180   18.2220   -1.0760 H     292  TIP281      0.2052
   1039 H2        -21.9310   18.7510   -1.1900 H     292  TIP281      0.2052
   1040 OH2       -10.7590  -12.2810   -6.4940 O.3   293  TIP282     -0.4105
   1041 H1        -11.1130  -11.4820   -6.1010 H     293  TIP282      0.2052
   1042 H2        -10.4030  -11.9960   -7.3360 H     293  TIP282      0.2052
   1043 OH2         0.2620   15.0300  -12.9100 O.3   294  TIP283     -0.4105
   1044 H1          0.7150   14.3420  -12.4220 H     294  TIP283      0.2052
   1045 H2          0.3760   15.8170  -12.3770 H     294  TIP283      0.2052
   1046 OH2       -21.2930  -16.7670    0.6700 O.3   295  TIP284     -0.4105
   1047 H1        -20.5990  -16.6690    1.3220 H     295  TIP284      0.2052
   1048 H2        -22.0970  -16.8380    1.1850 H     295  TIP284      0.2052
   1049 OH2        -0.8470    3.5670  -22.8760 O.3   296  TIP285     -0.4105
   1050 H1          0.0820    3.5710  -22.6450 H     296  TIP285      0.2052
   1051 H2         -1.0640    4.4890  -23.0130 H     296  TIP285      0.2052
   1052 OH2        17.3920    9.4030   -4.1210 O.3   297  TIP286     -0.4105
   1053 H1         17.6330   10.3240   -4.0180 H     297  TIP286      0.2052
   1054 H2         16.8870    9.3770   -4.9330 H     297  TIP286      0.2052
   1055 OH2       -23.8340   16.8530    0.5790 O.3   298  TIP287     -0.4105
   1056 H1        -23.8190   15.9480    0.2660 H     298  TIP287      0.2052
   1057 H2        -23.0820   17.2660    0.1560 H     298  TIP287      0.2052
   1058 OH2        -5.1630  -22.8930  -23.3890 O.3   299  TIP288     -0.4105
   1059 H1         -5.1080  -22.0680  -23.8700 H     299  TIP288      0.2052
   1060 H2         -4.8040  -22.6920  -22.5250 H     299  TIP288      0.2052
   1061 OH2       -11.1550  -13.5120   18.6600 O.3   300  TIP289     -0.4105
   1062 H1        -10.6210  -13.2860   17.8980 H     300  TIP289      0.2052
   1063 H2        -11.6320  -12.7090   18.8650 H     300  TIP289      0.2052
   1064 OH2         1.6610  -23.6920   12.1410 O.3   301  TIP290     -0.4105
   1065 H1          1.3990  -24.5060   11.7120 H     301  TIP290      0.2052
   1066 H2          1.6920  -23.0470   11.4350 H     301  TIP290      0.2052
   1067 OH2       -25.0730   18.2750    7.4900 O.3   302  TIP291     -0.4105
   1068 H1        -25.0640   17.9860    6.5770 H     302  TIP291      0.2052
   1069 H2        -25.9980   18.4280    7.6840 H     302  TIP291      0.2052
   1070 OH2         2.0420    8.9470   15.5940 O.3   303  TIP292     -0.4105
   1071 H1          2.7770    9.3450   16.0620 H     303  TIP292      0.2052
   1072 H2          1.7230    8.2650   16.1850 H     303  TIP292      0.2052
   1073 OH2         6.6110  -20.4340   -8.9400 O.3   304  TIP293     -0.4105
   1074 H1          7.3360  -20.0960   -9.4660 H     304  TIP293      0.2052
   1075 H2          6.1780  -19.6520   -8.5960 H     304  TIP293      0.2052
   1076 OH2         0.4260  -23.9660   26.0560 O.3   305  TIP294     -0.4105
   1077 H1         -0.3070  -24.2820   26.5840 H     305  TIP294      0.2052
   1078 H2          1.0080  -24.7210   25.9760 H     305  TIP294      0.2052
   1079 OH2        26.3140    1.1620   -2.6100 O.3   306  TIP295     -0.4105
   1080 H1         26.2030    0.5060   -1.9220 H     306  TIP295      0.2052
   1081 H2         27.2500    1.3620   -2.6020 H     306  TIP295      0.2052
   1082 OH2       -12.6220    6.1160  -14.6360 O.3   307  TIP296     -0.4105
   1083 H1        -13.3210    5.5060  -14.4000 H     307  TIP296      0.2052
   1084 H2        -12.0660    6.1570  -13.8580 H     307  TIP296      0.2052
   1085 OH2        13.3220  -11.0190   -8.1020 O.3   308  TIP297     -0.4105
   1086 H1         12.5750  -10.8040   -7.5430 H     308  TIP297      0.2052
   1087 H2         13.0880  -10.6690   -8.9610 H     308  TIP297      0.2052
   1088 OH2         7.1500    2.1120   24.2700 O.3   309  TIP298     -0.4105
   1089 H1          7.3050    1.1990   24.0280 H     309  TIP298      0.2052
   1090 H2          6.2690    2.1150   24.6430 H     309  TIP298      0.2052
   1091 OH2         0.9300   14.1150   26.4140 O.3   310  TIP299     -0.4105
   1092 H1          0.1070   13.6270   26.3820 H     310  TIP299      0.2052
   1093 H2          1.2390   14.0050   27.3130 H     310  TIP299      0.2052
   1094 OH2        -7.3450   -0.6980   -6.5550 O.3   311  TIP300     -0.4105
   1095 H1         -7.2990   -1.5450   -6.9990 H     311  TIP300      0.2052
   1096 H2         -8.2150   -0.3620   -6.7710 H     311  TIP300      0.2052
   1097 OH2        -9.8530    5.6680   -5.5390 O.3   312  TIP301     -0.4105
   1098 H1         -9.0640    5.6300   -6.0810 H     312  TIP301      0.2052
   1099 H2         -9.7850    4.9070   -4.9630 H     312  TIP301      0.2052
   1100 OH2         2.8950    1.9610   -1.3610 O.3   313  TIP302     -0.4105
   1101 H1          3.6390    1.9030   -0.7620 H     313  TIP302      0.2052
   1102 H2          2.9810    1.1930   -1.9260 H     313  TIP302      0.2052
   1103 OH2        24.7980   11.6180    9.0610 O.3   314  TIP303     -0.4105
   1104 H1         24.6600   11.0460    8.3060 H     314  TIP303      0.2052
   1105 H2         25.4050   12.2880    8.7460 H     314  TIP303      0.2052
   1106 OH2         3.3910  -15.4440   12.8390 O.3   315  TIP304     -0.4105
   1107 H1          3.1570  -16.3640   12.9620 H     315  TIP304      0.2052
   1108 H2          2.5530  -14.9820   12.8380 H     315  TIP304      0.2052
   1109 OH2       -16.9800   -9.1420  -13.8840 O.3   316  TIP305     -0.4105
   1110 H1        -16.4770   -9.2550  -14.6910 H     316  TIP305      0.2052
   1111 H2        -17.6280   -8.4700  -14.0970 H     316  TIP305      0.2052
   1112 OH2       -25.3160   -4.0320   -3.8140 O.3   317  TIP306     -0.4105
   1113 H1        -25.2840   -3.6650   -2.9310 H     317  TIP306      0.2052
   1114 H2        -26.1970   -3.8250   -4.1280 H     317  TIP306      0.2052
   1115 OH2         3.9660   21.8300   -2.7150 O.3   318  TIP307     -0.4105
   1116 H1          3.2930   22.0040   -3.3740 H     318  TIP307      0.2052
   1117 H2          3.9810   20.8770   -2.6330 H     318  TIP307      0.2052
   1118 OH2         4.3000  -20.7840   10.6190 O.3   319  TIP308     -0.4105
   1119 H1          4.0520  -21.0100   11.5160 H     319  TIP308      0.2052
   1120 H2          3.8530  -19.9560   10.4480 H     319  TIP308      0.2052
   1121 OH2         8.0710   21.8930   25.1360 O.3   320  TIP309     -0.4105
   1122 H1          7.3770   21.8150   25.7900 H     320  TIP309      0.2052
   1123 H2          8.7030   22.4960   25.5280 H     320  TIP309      0.2052
   1124 OH2        -4.1540   -0.6450   29.8870 O.3   321  TIP310     -0.4105
   1125 H1         -4.9260   -0.6550   29.3220 H     321  TIP310      0.2052
   1126 H2         -3.6800   -1.4450   29.6590 H     321  TIP310      0.2052
   1127 OH2       -15.5870    5.9800   -3.3600 O.3   322  TIP311     -0.4105
   1128 H1        -15.9240    5.3680   -2.7060 H     322  TIP311      0.2052
   1129 H2        -15.2260    6.7030   -2.8490 H     322  TIP311      0.2052
   1130 OH2       -10.0960  -12.7840    3.5110 O.3   323  TIP312     -0.4105
   1131 H1         -9.5780  -12.5850    4.2900 H     323  TIP312      0.2052
   1132 H2        -10.9880  -12.5240    3.7430 H     323  TIP312      0.2052
   1133 OH2         5.7520   -6.4520   27.8140 O.3   324  TIP313     -0.4105
   1134 H1          6.0420   -7.1930   28.3450 H     324  TIP313      0.2052
   1135 H2          5.4650   -6.8450   26.9890 H     324  TIP313      0.2052
   1136 OH2        -7.5510   15.0390   22.7500 O.3   325  TIP314     -0.4105
   1137 H1         -7.0570   15.8420   22.5830 H     325  TIP314      0.2052
   1138 H2         -8.2720   15.3140   23.3160 H     325  TIP314      0.2052
   1139 OH2         6.6350   19.1240   19.3500 O.3   326  TIP315     -0.4105
   1140 H1          6.1280   19.2500   18.5480 H     326  TIP315      0.2052
   1141 H2          7.5460   19.1140   19.0590 H     326  TIP315      0.2052
   1142 OH2        -3.1180   27.5730   -2.2170 O.3   327  TIP316     -0.4105
   1143 H1         -3.6100   28.0580   -1.5550 H     327  TIP316      0.2052
   1144 H2         -3.2840   26.6530   -2.0130 H     327  TIP316      0.2052
   1145 OH2         2.4850  -19.7420   30.8500 O.3   328  TIP317     -0.4105
   1146 H1          3.0070  -19.8320   30.0520 H     328  TIP317      0.2052
   1147 H2          2.3250  -18.8010   30.9280 H     328  TIP317      0.2052
   1148 OH2         2.7140   -6.3910  -16.9990 O.3   329  TIP318     -0.4105
   1149 H1          3.3170   -6.6430  -17.6980 H     329  TIP318      0.2052
   1150 H2          2.5840   -5.4510  -17.1210 H     329  TIP318      0.2052
   1151 OH2       -26.5280   -9.7540   18.3360 O.3   330  TIP319     -0.4105
   1152 H1        -26.9140   -9.1900   19.0050 H     330  TIP319      0.2052
   1153 H2        -26.1670  -10.4940   18.8250 H     330  TIP319      0.2052
   1154 OH2         1.0810   -5.7450    7.0320 O.3   331  TIP320     -0.4105
   1155 H1          1.6860   -5.4070    6.3720 H     331  TIP320      0.2052
   1156 H2          1.4580   -5.4670    7.8670 H     331  TIP320      0.2052
   1157 OH2        11.6110   27.7850   24.4200 O.3   332  TIP321     -0.4105
   1158 H1         10.8350   28.3320   24.2990 H     332  TIP321      0.2052
   1159 H2         11.3730   26.9410   24.0350 H     332  TIP321      0.2052
   1160 OH2        12.8680   13.4760  -28.3270 O.3   333  TIP322     -0.4105
   1161 H1         13.6150   13.0190  -27.9400 H     333  TIP322      0.2052
   1162 H2         12.1460   13.3120  -27.7200 H     333  TIP322      0.2052
   1163 OH2        11.1220    5.7890   20.1640 O.3   334  TIP323     -0.4105
   1164 H1         10.8710    4.9740   20.5980 H     334  TIP323      0.2052
   1165 H2         11.1390    6.4390   20.8670 H     334  TIP323      0.2052
   1166 OH2       -22.2030   27.7380    2.6320 O.3   335  TIP324     -0.4105
   1167 H1        -22.6350   28.4020    3.1700 H     335  TIP324      0.2052
   1168 H2        -21.3260   28.0870    2.4790 H     335  TIP324      0.2052
   1169 OH2        -1.7460   14.9160   -6.1050 O.3   336  TIP325     -0.4105
   1170 H1         -2.5390   14.6010   -5.6730 H     336  TIP325      0.2052
   1171 H2         -2.0450   15.2290   -6.9590 H     336  TIP325      0.2052
   1172 OH2        22.9250   -3.2400    2.9240 O.3   337  TIP326     -0.4105
   1173 H1         23.6800   -3.0720    3.4870 H     337  TIP326      0.2052
   1174 H2         22.2130   -3.4420    3.5320 H     337  TIP326      0.2052
   1175 OH2         7.5960   -1.7110  -23.0800 O.3   338  TIP327     -0.4105
   1176 H1          7.2670   -2.6080  -23.1460 H     338  TIP327      0.2052
   1177 H2          6.9600   -1.2630  -22.5230 H     338  TIP327      0.2052
   1178 OH2       -17.3730   19.8450   13.4410 O.3   339  TIP328     -0.4105
   1179 H1        -16.5010   19.5920   13.1380 H     339  TIP328      0.2052
   1180 H2        -17.2650   20.0010   14.3790 H     339  TIP328      0.2052
   1181 OH2       -15.1390  -14.5960    8.2520 O.3   340  TIP329     -0.4105
   1182 H1        -15.0950  -15.3890    7.7180 H     340  TIP329      0.2052
   1183 H2        -16.0610  -14.3410    8.2280 H     340  TIP329      0.2052
   1184 OH2        -4.8810   16.3160  -15.2310 O.3   341  TIP330     -0.4105
   1185 H1         -3.9370   16.4080  -15.3550 H     341  TIP330      0.2052
   1186 H2         -5.2160   17.2120  -15.2660 H     341  TIP330      0.2052
   1187 OH2        27.0000  -10.6030   -4.8140 O.3   342  TIP331     -0.4105
   1188 H1         27.8730  -10.9840   -4.7250 H     342  TIP331      0.2052
   1189 H2         27.0930   -9.9490   -5.5070 H     342  TIP331      0.2052
   1190 OH2       -17.4670   32.1130   -8.8550 O.3   343  TIP332     -0.4105
   1191 H1        -17.1580   32.9980   -9.0460 H     343  TIP332      0.2052
   1192 H2        -18.0580   31.9040   -9.5790 H     343  TIP332      0.2052
   1193 OH2       -11.8410   -0.1570   22.5010 O.3   344  TIP333     -0.4105
   1194 H1        -11.0810    0.1830   22.9730 H     344  TIP333      0.2052
   1195 H2        -12.2910   -0.7110   23.1380 H     344  TIP333      0.2052
   1196 OH2        -4.1740   11.1300  -13.6180 O.3   345  TIP334     -0.4105
   1197 H1         -4.4430   11.1040  -12.7000 H     345  TIP334      0.2052
   1198 H2         -4.5880   10.3620  -14.0110 H     345  TIP334      0.2052
   1199 OH2         3.7150    1.8240   20.1470 O.3   346  TIP335     -0.4105
   1200 H1          4.1450    1.4150   19.3960 H     346  TIP335      0.2052
   1201 H2          3.5150    1.0950   20.7350 H     346  TIP335      0.2052
   1202 OH2       -25.3550  -15.8270   11.1570 O.3   347  TIP336     -0.4105
   1203 H1        -24.5220  -16.2650   11.3340 H     347  TIP336      0.2052
   1204 H2        -25.5670  -15.3770   11.9750 H     347  TIP336      0.2052
   1205 OH2        -0.4540   19.1320   10.4490 O.3   348  TIP337     -0.4105
   1206 H1          0.4110   18.8300   10.1690 H     348  TIP337      0.2052
   1207 H2         -1.0670   18.5390   10.0140 H     348  TIP337      0.2052
   1208 OH2        -7.2450   13.9060   18.6430 O.3   349  TIP338     -0.4105
   1209 H1         -7.8040   14.6750   18.5360 H     349  TIP338      0.2052
   1210 H2         -7.4470   13.5830   19.5210 H     349  TIP338      0.2052
   1211 OH2       -22.7780   -4.5140   -8.6550 O.3   350  TIP339     -0.4105
   1212 H1        -22.0250   -4.4510   -9.2430 H     350  TIP339      0.2052
   1213 H2        -22.7020   -3.7490   -8.0860 H     350  TIP339      0.2052
   1214 OH2        18.9170  -14.7480   11.3060 O.3   351  TIP340     -0.4105
   1215 H1         18.4060  -15.0190   12.0690 H     351  TIP340      0.2052
   1216 H2         19.4890  -14.0540   11.6350 H     351  TIP340      0.2052
   1217 OH2        -0.3390   17.8810   14.4450 O.3   352  TIP341     -0.4105
   1218 H1         -0.5650   17.9960   15.3680 H     352  TIP341      0.2052
   1219 H2         -0.5810   16.9760   14.2490 H     352  TIP341      0.2052
   1220 OH2        -7.5100   26.6960  -17.3890 O.3   353  TIP342     -0.4105
   1221 H1         -6.6560   26.3310  -17.6210 H     353  TIP342      0.2052
   1222 H2         -7.3840   27.0640  -16.5150 H     353  TIP342      0.2052
   1223 OH2        -2.3620  -16.1470    2.1480 O.3   354  TIP343     -0.4105
   1224 H1         -2.5160  -15.6860    2.9730 H     354  TIP343      0.2052
   1225 H2         -2.0340  -17.0070    2.4120 H     354  TIP343      0.2052
   1226 OH2         5.1400  -13.5490   24.7480 O.3   355  TIP344     -0.4105
   1227 H1          4.6910  -14.0970   24.1050 H     355  TIP344      0.2052
   1228 H2          5.9320  -14.0380   24.9700 H     355  TIP344      0.2052
   1229 OH2        -2.8270  -18.0950  -23.9730 O.3   356  TIP345     -0.4105
   1230 H1         -2.8270  -18.7460  -24.6750 H     356  TIP345      0.2052
   1231 H2         -2.1790  -18.4180  -23.3470 H     356  TIP345      0.2052
   1232 OH2        11.9330  -30.4170   15.2050 O.3   357  TIP346     -0.4105
   1233 H1         11.2350  -30.6760   15.8060 H     357  TIP346      0.2052
   1234 H2         11.7320  -29.5080   14.9820 H     357  TIP346      0.2052
   1235 OH2        26.4600   10.2460   -5.5340 O.3   358  TIP347     -0.4105
   1236 H1         25.5780   10.1910   -5.1660 H     358  TIP347      0.2052
   1237 H2         26.4630   11.0650   -6.0300 H     358  TIP347      0.2052
   1238 OH2       -18.4850  -11.2570  -18.2780 O.3   359  TIP348     -0.4105
   1239 H1        -17.9880  -11.3250  -17.4630 H     359  TIP348      0.2052
   1240 H2        -19.2340  -11.8390  -18.1520 H     359  TIP348      0.2052
   1241 OH2        18.7280   11.4330  -20.0660 O.3   360  TIP349     -0.4105
   1242 H1         18.5360   12.3520  -19.8790 H     360  TIP349      0.2052
   1243 H2         19.1510   11.4450  -20.9240 H     360  TIP349      0.2052
   1244 OH2         3.8020  -20.5630   17.8660 O.3   361  TIP350     -0.4105
   1245 H1          2.9190  -20.9320   17.8360 H     361  TIP350      0.2052
   1246 H2          3.6650  -19.6160   17.8880 H     361  TIP350      0.2052
   1247 OH2        -5.9760   31.9740   12.6140 O.3   362  TIP351     -0.4105
   1248 H1         -6.1590   31.2820   13.2490 H     362  TIP351      0.2052
   1249 H2         -6.8200   32.4050   12.4780 H     362  TIP351      0.2052
   1250 OH2       -23.7950   -0.4130    4.2240 O.3   363  TIP352     -0.4105
   1251 H1        -24.6030   -0.9220    4.1490 H     363  TIP352      0.2052
   1252 H2        -23.2890   -0.6480    3.4470 H     363  TIP352      0.2052
   1253 OH2       -11.9370  -26.2520  -19.6780 O.3   364  TIP353     -0.4105
   1254 H1        -12.5350  -25.5100  -19.5920 H     364  TIP353      0.2052
   1255 H2        -11.7480  -26.3010  -20.6150 H     364  TIP353      0.2052
   1256 OH2        28.2280    6.3050  -10.5990 O.3   365  TIP354     -0.4105
   1257 H1         27.4870    5.8280  -10.9720 H     365  TIP354      0.2052
   1258 H2         28.7610    6.5500  -11.3550 H     365  TIP354      0.2052
   1259 OH2       -16.0120   24.0600   -0.0640 O.3   366  TIP355     -0.4105
   1260 H1        -16.3590   24.8490   -0.4810 H     366  TIP355      0.2052
   1261 H2        -16.0270   24.2570    0.8720 H     366  TIP355      0.2052
   1262 OH2       -19.2580   24.8250   -8.2990 O.3   367  TIP356     -0.4105
   1263 H1        -18.6300   24.9800   -9.0050 H     367  TIP356      0.2052
   1264 H2        -19.7410   25.6470   -8.2230 H     367  TIP356      0.2052
   1265 OH2         4.3590   24.2950    0.8840 O.3   368  TIP357     -0.4105
   1266 H1          4.0110   23.4100    0.9950 H     368  TIP357      0.2052
   1267 H2          5.1190   24.3280    1.4650 H     368  TIP357      0.2052
   1268 OH2        14.9130   -8.2550  -13.0260 O.3   369  TIP358     -0.4105
   1269 H1         14.3840   -7.4660  -12.9050 H     369  TIP358      0.2052
   1270 H2         15.8150   -7.9580  -12.9120 H     369  TIP358      0.2052
   1271 OH2         9.5470    9.1630   15.7240 O.3   370  TIP359     -0.4105
   1272 H1          8.8100    8.8980   15.1740 H     370  TIP359      0.2052
   1273 H2          9.7720    8.3760   16.2210 H     370  TIP359      0.2052
   1274 OH2         7.2780   -2.2050   22.8390 O.3   371  TIP360     -0.4105
   1275 H1          7.9180   -1.5470   23.1090 H     371  TIP360      0.2052
   1276 H2          6.4750   -1.9620   23.3000 H     371  TIP360      0.2052
   1277 OH2        34.1810   -1.8380   -2.4980 O.3   372  TIP361     -0.4105
   1278 H1         34.3500   -2.2890   -3.3250 H     372  TIP361      0.2052
   1279 H2         33.3140   -2.1440   -2.2310 H     372  TIP361      0.2052
   1280 OH2        19.0890    6.1180    3.0360 O.3   373  TIP362     -0.4105
   1281 H1         19.3350    6.3720    2.1470 H     373  TIP362      0.2052
   1282 H2         18.1770    5.8350    2.9610 H     373  TIP362      0.2052
   1283 OH2         4.9410    4.0360   22.7290 O.3   374  TIP363     -0.4105
   1284 H1          5.7530    4.4620   23.0010 H     374  TIP363      0.2052
   1285 H2          4.9190    4.1460   21.7780 H     374  TIP363      0.2052
   1286 OH2        19.9980   13.7380   17.7680 O.3   375  TIP364     -0.4105
   1287 H1         19.7350   13.9460   18.6650 H     375  TIP364      0.2052
   1288 H2         19.3480   14.1800   17.2200 H     375  TIP364      0.2052
   1289 OH2         0.7090  -21.3470   27.1370 O.3   376  TIP365     -0.4105
   1290 H1          1.5240  -21.0820   26.7110 H     376  TIP365      0.2052
   1291 H2          0.5330  -22.2240   26.7960 H     376  TIP365      0.2052
   1292 OH2        -2.2100   12.1900   -2.4080 O.3   377  TIP366     -0.4105
   1293 H1         -1.4730   11.6790   -2.7430 H     377  TIP366      0.2052
   1294 H2         -1.9040   13.0960   -2.4310 H     377  TIP366      0.2052
   1295 OH2        -0.7050   29.1770    5.9680 O.3   378  TIP367     -0.4105
   1296 H1         -0.7540   30.1260    5.8540 H     378  TIP367      0.2052
   1297 H2         -0.3160   29.0590    6.8340 H     378  TIP367      0.2052
   1298 OH2       -27.9310   26.7370    2.7230 O.3   379  TIP368     -0.4105
   1299 H1        -27.7960   27.3400    3.4530 H     379  TIP368      0.2052
   1300 H2        -28.6150   27.1480    2.1950 H     379  TIP368      0.2052
   1301 OH2         6.0130    6.9260    4.3620 O.3   380  TIP369     -0.4105
   1302 H1          5.4090    6.9210    3.6190 H     380  TIP369      0.2052
   1303 H2          6.8350    7.2600    4.0020 H     380  TIP369      0.2052
   1304 OH2       -31.1540   -9.6220   12.2330 O.3   381  TIP370     -0.4105
   1305 H1        -30.6530  -10.3460   11.8580 H     381  TIP370      0.2052
   1306 H2        -32.0360   -9.7310   11.8780 H     381  TIP370      0.2052
   1307 OH2        23.2310    7.8790  -18.6160 O.3   382  TIP371     -0.4105
   1308 H1         24.0420    7.4340  -18.8620 H     382  TIP371      0.2052
   1309 H2         22.8070    8.0840  -19.4500 H     382  TIP371      0.2052
   1310 OH2        -5.5330  -27.1240  -18.1000 O.3   383  TIP372     -0.4105
   1311 H1         -5.2730  -27.6860  -17.3700 H     383  TIP372      0.2052
   1312 H2         -4.9650  -27.3920  -18.8220 H     383  TIP372      0.2052
   1313 OH2         2.0640  -22.2690   -2.6700 O.3   384  TIP373     -0.4105
   1314 H1          1.2430  -21.8350   -2.9030 H     384  TIP373      0.2052
   1315 H2          2.5290  -22.3650   -3.5010 H     384  TIP373      0.2052
   1316 OH2       -20.2290  -11.6420  -12.6570 O.3   385  TIP374     -0.4105
   1317 H1        -21.1800  -11.7480  -12.6980 H     385  TIP374      0.2052
   1318 H2        -20.0980  -10.7020  -12.5360 H     385  TIP374      0.2052
   1319 OH2       -26.4590  -15.1630   13.9220 O.3   386  TIP375     -0.4105
   1320 H1        -25.9190  -15.5940   14.5840 H     386  TIP375      0.2052
   1321 H2        -26.4210  -14.2340   14.1490 H     386  TIP375      0.2052
   1322 OH2       -14.3670   -7.4620    4.5610 O.3   387  TIP376     -0.4105
   1323 H1        -15.1800   -7.0380    4.8360 H     387  TIP376      0.2052
   1324 H2        -14.6390   -8.0890    3.8910 H     387  TIP376      0.2052
   1325 OH2         9.0520   12.2100   27.5240 O.3   388  TIP377     -0.4105
   1326 H1          9.7020   12.7920   27.9170 H     388  TIP377      0.2052
   1327 H2          9.4060   11.3310   27.6570 H     388  TIP377      0.2052
   1328 OH2       -28.3260  -13.1130    6.6700 O.3   389  TIP378     -0.4105
   1329 H1        -28.4680  -12.1910    6.4580 H     389  TIP378      0.2052
   1330 H2        -27.5290  -13.3490    6.1950 H     389  TIP378      0.2052
   1331 OH2        26.2660   -3.4980  -10.4240 O.3   390  TIP379     -0.4105
   1332 H1         25.9620   -3.6860   -9.5360 H     390  TIP379      0.2052
   1333 H2         25.9400   -4.2300  -10.9480 H     390  TIP379      0.2052
   1334 OH2        -1.0670   14.8230    0.6310 O.3   391  TIP380     -0.4105
   1335 H1         -1.8140   15.2380    1.0630 H     391  TIP380      0.2052
   1336 H2         -1.2370   14.9390   -0.3040 H     391  TIP380      0.2052
   1337 OH2        14.4020   14.5350    3.4050 O.3   392  TIP381     -0.4105
   1338 H1         13.4950   14.4010    3.1270 H     392  TIP381      0.2052
   1339 H2         14.7820   15.0900    2.7240 H     392  TIP381      0.2052
   1340 OH2         5.9100    3.6970  -17.1690 O.3   393  TIP382     -0.4105
   1341 H1          5.7580    2.7570  -17.2660 H     393  TIP382      0.2052
   1342 H2          6.8610    3.7920  -17.2190 H     393  TIP382      0.2052
   1343 OH2        -1.0820   25.2890   13.1850 O.3   394  TIP383     -0.4105
   1344 H1         -0.3270   25.5730   13.7010 H     394  TIP383      0.2052
   1345 H2         -0.7240   25.1130   12.3150 H     394  TIP383      0.2052
   1346 OH2        20.1820   -7.5280    0.2350 O.3   395  TIP384     -0.4105
   1347 H1         20.8470   -6.9310    0.5790 H     395  TIP384      0.2052
   1348 H2         20.6810   -8.2200   -0.1990 H     395  TIP384      0.2052
   1349 OH2       -12.0700  -14.7640   32.9140 O.3   396  TIP385     -0.4105
   1350 H1        -13.0110  -14.8020   32.7420 H     396  TIP385      0.2052
   1351 H2        -11.6770  -14.5840   32.0590 H     396  TIP385      0.2052
   1352 OH2       -11.2860   16.7640    6.8170 O.3   397  TIP386     -0.4105
   1353 H1        -11.6390   17.1400    7.6230 H     397  TIP386      0.2052
   1354 H2        -11.1800   17.5130    6.2300 H     397  TIP386      0.2052
   1355 OH2       -13.2250  -10.2830   27.2250 O.3   398  TIP387     -0.4105
   1356 H1        -13.8730  -10.7660   26.7130 H     398  TIP387      0.2052
   1357 H2        -13.2970  -10.6460   28.1070 H     398  TIP387      0.2052
   1358 OH2        34.0940    6.1090   -2.5650 O.3   399  TIP388     -0.4105
   1359 H1         34.9360    6.5120   -2.3550 H     399  TIP388      0.2052
   1360 H2         33.5020    6.8490   -2.7030 H     399  TIP388      0.2052
   1361 OH2       -11.2800   -8.0650   22.2630 O.3   400  TIP389     -0.4105
   1362 H1        -10.7790   -8.8740   22.3590 H     400  TIP389      0.2052
   1363 H2        -11.5530   -7.8450   23.1540 H     400  TIP389      0.2052
   1364 OH2         5.2290    8.4200   33.2670 O.3   401  TIP390     -0.4105
   1365 H1          5.3720    7.5330   33.5980 H     401  TIP390      0.2052
   1366 H2          5.8240    8.4960   32.5210 H     401  TIP390      0.2052
   1367 OH2        19.0350   13.6400  -25.2130 O.3   402  TIP391     -0.4105
   1368 H1         19.8560   14.1020  -25.0400 H     402  TIP391      0.2052
   1369 H2         18.4570   13.9020  -24.4970 H     402  TIP391      0.2052
   1370 OH2        10.1180  -16.7320  -12.0440 O.3   403  TIP392     -0.4105
   1371 H1         10.5440  -17.4520  -12.5090 H     403  TIP392      0.2052
   1372 H2         10.7900  -16.4000  -11.4490 H     403  TIP392      0.2052
   1373 OH2       -12.5990  -16.1670   14.2170 O.3   404  TIP393     -0.4105
   1374 H1        -12.4740  -15.9200   15.1340 H     404  TIP393      0.2052
   1375 H2        -12.8590  -17.0880   14.2500 H     404  TIP393      0.2052
   1376 OH2        -1.7750   -0.9650   21.2270 O.3   405  TIP394     -0.4105
   1377 H1         -1.0350   -0.6330   20.7180 H     405  TIP394      0.2052
   1378 H2         -2.5450   -0.7450   20.7030 H     405  TIP394      0.2052
   1379 OH2         6.2580  -12.5340    6.9530 O.3   406  TIP395     -0.4105
   1380 H1          5.7950  -13.3560    6.7900 H     406  TIP395      0.2052
   1381 H2          5.7220  -12.0830    7.6050 H     406  TIP395      0.2052
   1382 OH2         3.3310  -21.7250   25.6730 O.3   407  TIP396     -0.4105
   1383 H1          3.5460  -21.3310   26.5180 H     407  TIP396      0.2052
   1384 H2          4.0870  -21.5330   25.1190 H     407  TIP396      0.2052
   1385 OH2         5.1250    5.1500  -14.6310 O.3   408  TIP397     -0.4105
   1386 H1          5.2350    6.0410  -14.9620 H     408  TIP397      0.2052
   1387 H2          5.5710    4.5980  -15.2730 H     408  TIP397      0.2052
   1388 OH2         1.0450   24.2600    0.9940 O.3   409  TIP398     -0.4105
   1389 H1          1.2970   24.1840    0.0740 H     409  TIP398      0.2052
   1390 H2          1.7190   23.7740    1.4690 H     409  TIP398      0.2052
   1391 OH2         2.4970   17.8080   19.8120 O.3   410  TIP399     -0.4105
   1392 H1          2.2490   18.6180   19.3670 H     410  TIP399      0.2052
   1393 H2          2.0250   17.8380   20.6440 H     410  TIP399      0.2052
   1394 OH2        -6.1420   -4.7920   16.8220 O.3   411  TIP400     -0.4105
   1395 H1         -5.9250   -3.8630   16.7450 H     411  TIP400      0.2052
   1396 H2         -5.6590   -5.2110   16.1100 H     411  TIP400      0.2052
   1397 OH2         5.8840   23.2740   13.8090 O.3   412  TIP401     -0.4105
   1398 H1          6.5910   23.5200   13.2120 H     412  TIP401      0.2052
   1399 H2          5.6830   22.3660   13.5810 H     412  TIP401      0.2052
   1400 OH2        -1.5470    0.8130  -21.9630 O.3   413  TIP402     -0.4105
   1401 H1         -1.6840    1.7610  -21.9610 H     413  TIP402      0.2052
   1402 H2         -1.5680    0.5660  -21.0390 H     413  TIP402      0.2052
   1403 OH2        16.4530    7.7220   -8.8190 O.3   414  TIP403     -0.4105
   1404 H1         15.9950    8.5570   -8.9090 H     414  TIP403      0.2052
   1405 H2         16.2090    7.2290   -9.6030 H     414  TIP403      0.2052
   1406 OH2         8.4700   -1.5250  -16.4230 O.3   415  TIP404     -0.4105
   1407 H1          8.3950   -1.9290  -17.2870 H     415  TIP404      0.2052
   1408 H2          7.9820   -2.1090  -15.8420 H     415  TIP404      0.2052
   1409 OH2        -6.3150   20.7680    3.1610 O.3   416  TIP405     -0.4105
   1410 H1         -5.5980   21.2900    3.5230 H     416  TIP405      0.2052
   1411 H2         -6.3000   20.9580    2.2230 H     416  TIP405      0.2052
   1412 OH2        10.0800  -28.1650    3.1070 O.3   417  TIP406     -0.4105
   1413 H1         10.3730  -28.9260    3.6090 H     417  TIP406      0.2052
   1414 H2         10.8830  -27.6840    2.9100 H     417  TIP406      0.2052
   1415 OH2       -18.4050  -11.8490   13.3480 O.3   418  TIP407     -0.4105
   1416 H1        -19.0160  -11.3270   12.8290 H     418  TIP407      0.2052
   1417 H2        -18.6310  -12.7560   13.1440 H     418  TIP407      0.2052
   1418 OH2       -22.6120  -16.8040  -18.0330 O.3   419  TIP408     -0.4105
   1419 H1        -22.6860  -16.6510  -17.0910 H     419  TIP408      0.2052
   1420 H2        -22.4330  -17.7410  -18.1120 H     419  TIP408      0.2052
   1421 OH2       -14.1860   13.5840   -3.3600 O.3   420  TIP409     -0.4105
   1422 H1        -13.8830   14.4790   -3.2030 H     420  TIP409      0.2052
   1423 H2        -14.7960   13.4080   -2.6440 H     420  TIP409      0.2052
   1424 OH2        12.5560   -2.8860   25.2370 O.3   421  TIP410     -0.4105
   1425 H1         11.7400   -3.2040   25.6240 H     421  TIP410      0.2052
   1426 H2         13.2210   -3.0640   25.9010 H     421  TIP410      0.2052
   1427 OH2        15.7440    6.0100   13.9450 O.3   422  TIP411     -0.4105
   1428 H1         16.3100    5.4070   13.4640 H     422  TIP411      0.2052
   1429 H2         16.2470    6.8230   13.9950 H     422  TIP411      0.2052
   1430 OH2       -32.6600    9.3800    7.4750 O.3   423  TIP412     -0.4105
   1431 H1        -32.7660    9.7570    8.3490 H     423  TIP412      0.2052
   1432 H2        -33.3710    9.7630    6.9610 H     423  TIP412      0.2052
   1433 OH2        -4.9010  -22.0560   16.4940 O.3   424  TIP413     -0.4105
   1434 H1         -4.6750  -21.1350   16.3640 H     424  TIP413      0.2052
   1435 H2         -4.0570  -22.5020   16.5660 H     424  TIP413      0.2052
   1436 OH2        -3.6350  -18.4530   27.1720 O.3   425  TIP414     -0.4105
   1437 H1         -3.5220  -17.8130   27.8740 H     425  TIP414      0.2052
   1438 H2         -3.2180  -19.2480   27.5020 H     425  TIP414      0.2052
   1439 OH2        -6.3490    0.8980  -11.0740 O.3   426  TIP415     -0.4105
   1440 H1         -5.9480    0.0630  -11.3180 H     426  TIP415      0.2052
   1441 H2         -5.6220    1.4240  -10.7410 H     426  TIP415      0.2052
   1442 OH2         1.3670  -13.9150  -18.8850 O.3   427  TIP416     -0.4105
   1443 H1          1.1720  -13.2800  -19.5740 H     427  TIP416      0.2052
   1444 H2          2.0860  -13.5200  -18.3910 H     427  TIP416      0.2052
   1445 OH2       -15.7360  -14.5610   27.8690 O.3   428  TIP417     -0.4105
   1446 H1        -16.0490  -13.8840   28.4690 H     428  TIP417      0.2052
   1447 H2        -16.4870  -15.1430   27.7510 H     428  TIP417      0.2052
   1448 OH2       -21.4320    4.5750   -9.5640 O.3   429  TIP418     -0.4105
   1449 H1        -22.3450    4.2960   -9.6350 H     429  TIP418      0.2052
   1450 H2        -21.1450    4.6870  -10.4710 H     429  TIP418      0.2052
   1451 OH2        -6.4930    4.1790    2.7900 O.3   430  TIP419     -0.4105
   1452 H1         -6.4170    3.2960    2.4300 H     430  TIP419      0.2052
   1453 H2         -6.4790    4.0540    3.7390 H     430  TIP419      0.2052
   1454 OH2        37.9740    5.4570   -4.7110 O.3   431  TIP420     -0.4105
   1455 H1         37.9580    6.3560   -5.0400 H     431  TIP420      0.2052
   1456 H2         37.3760    4.9810   -5.2860 H     431  TIP420      0.2052
   1457 OH2        20.0480    2.2980  -11.5590 O.3   432  TIP421     -0.4105
   1458 H1         19.6380    2.6910  -12.3300 H     432  TIP421      0.2052
   1459 H2         20.6060    1.6050  -11.9120 H     432  TIP421      0.2052
   1460 OH2       -25.3000   -0.9020   15.4510 O.3   433  TIP422     -0.4105
   1461 H1        -25.9170   -0.5940   16.1150 H     433  TIP422      0.2052
   1462 H2        -25.5330   -1.8210   15.3160 H     433  TIP422      0.2052
   1463 OH2        26.3890  -17.8180    2.5750 O.3   434  TIP423     -0.4105
   1464 H1         26.6490  -18.7170    2.7770 H     434  TIP423      0.2052
   1465 H2         25.5830  -17.6830    3.0730 H     434  TIP423      0.2052
   1466 OH2       -18.9020  -18.8800  -22.8640 O.3   435  TIP424     -0.4105
   1467 H1        -19.2040  -19.6320  -23.3740 H     435  TIP424      0.2052
   1468 H2        -19.2640  -18.1210  -23.3200 H     435  TIP424      0.2052
   1469 OH2        -8.8020  -19.0050   -2.0560 O.3   436  TIP425     -0.4105
   1470 H1         -9.0590  -19.7560   -2.5920 H     436  TIP425      0.2052
   1471 H2         -8.6490  -18.3010   -2.6870 H     436  TIP425      0.2052
   1472 OH2         8.1140    7.3320  -28.9590 O.3   437  TIP426     -0.4105
   1473 H1          7.3500    7.8980  -29.0660 H     437  TIP426      0.2052
   1474 H2          8.5030    7.6070  -28.1290 H     437  TIP426      0.2052
   1475 OH2         3.2910  -27.2390   -4.3740 O.3   438  TIP427     -0.4105
   1476 H1          2.6800  -27.6400   -4.9920 H     438  TIP427      0.2052
   1477 H2          4.0950  -27.7510   -4.4650 H     438  TIP427      0.2052
   1478 OH2        21.8390  -27.6270   -3.5960 O.3   439  TIP428     -0.4105
   1479 H1         21.3350  -27.2760   -4.3290 H     439  TIP428      0.2052
   1480 H2         22.7420  -27.6490   -3.9140 H     439  TIP428      0.2052
   1481 OH2        10.2440   -7.3420  -14.2690 O.3   440  TIP429     -0.4105
   1482 H1          9.5050   -7.6520  -14.7920 H     440  TIP429      0.2052
   1483 H2         10.1920   -7.8460  -13.4570 H     440  TIP429      0.2052
   1484 OH2         6.1470   23.4470   23.1750 O.3   441  TIP430     -0.4105
   1485 H1          6.1810   22.7900   23.8690 H     441  TIP430      0.2052
   1486 H2          6.7290   23.1080   22.4940 H     441  TIP430      0.2052
   1487 OH2       -25.0920   26.2860    3.7960 O.3   442  TIP431     -0.4105
   1488 H1        -25.6430   26.4730    4.5560 H     442  TIP431      0.2052
   1489 H2        -25.2570   27.0130    3.1960 H     442  TIP431      0.2052
   1490 OH2         7.4120   10.8740   -0.8510 O.3   443  TIP432     -0.4105
   1491 H1          7.8530   11.4700   -0.2460 H     443  TIP432      0.2052
   1492 H2          6.4980   10.8760   -0.5680 H     443  TIP432      0.2052
   1493 OH2       -18.1570  -11.9340   16.3950 O.3   444  TIP433     -0.4105
   1494 H1        -18.3500  -12.3710   15.5650 H     444  TIP433      0.2052
   1495 H2        -18.2570  -11.0010   16.2040 H     444  TIP433      0.2052
   1496 OH2        -6.4030   -6.4030  -19.3170 O.3   445  TIP434     -0.4105
   1497 H1         -5.4680   -6.2980  -19.1430 H     445  TIP434      0.2052
   1498 H2         -6.4530   -6.5810  -20.2560 H     445  TIP434      0.2052
   1499 OH2        16.9000   12.6290    1.8040 O.3   446  TIP435     -0.4105
   1500 H1         15.9440   12.5840    1.8350 H     446  TIP435      0.2052
   1501 H2         17.0940   13.0270    0.9550 H     446  TIP435      0.2052
   1502 OH2       -13.2980  -24.1650  -12.2780 O.3   447  TIP436     -0.4105
   1503 H1        -13.1980  -24.8000  -12.9870 H     447  TIP436      0.2052
   1504 H2        -13.8170  -23.4580  -12.6600 H     447  TIP436      0.2052
   1505 OH2       -12.5630  -11.9020  -26.2170 O.3   448  TIP437     -0.4105
   1506 H1        -11.6960  -11.7300  -25.8500 H     448  TIP437      0.2052
   1507 H2        -13.0310  -11.0720  -26.1250 H     448  TIP437      0.2052
   1508 OH2        -0.1090    7.7130    1.1620 O.3   449  TIP438     -0.4105
   1509 H1         -0.9950    7.9800    1.4060 H     449  TIP438      0.2052
   1510 H2         -0.0400    7.9340    0.2330 H     449  TIP438      0.2052
   1511 OH2        -4.9910    4.6450  -12.4200 O.3   450  TIP439     -0.4105
   1512 H1         -4.7740    3.8450  -12.8980 H     450  TIP439      0.2052
   1513 H2         -5.5070    5.1620  -13.0390 H     450  TIP439      0.2052
   1514 OH2        -2.6280   22.9760   10.4440 O.3   451  TIP440     -0.4105
   1515 H1         -2.6520   23.9010   10.6900 H     451  TIP440      0.2052
   1516 H2         -1.7430   22.6900   10.6700 H     451  TIP440      0.2052
   1517 OH2        -7.2540  -20.6380  -16.5490 O.3   452  TIP441     -0.4105
   1518 H1         -7.8220  -20.2850  -17.2340 H     452  TIP441      0.2052
   1519 H2         -7.2240  -19.9500  -15.8840 H     452  TIP441      0.2052
   1520 OH2       -13.3060   -4.9880    3.8310 O.3   453  TIP442     -0.4105
   1521 H1        -13.2810   -5.8370    4.2720 H     453  TIP442      0.2052
   1522 H2        -13.9750   -5.0890    3.1530 H     453  TIP442      0.2052
   1523 OH2        -5.2180   -6.5450   30.0110 O.3   454  TIP443     -0.4105
   1524 H1         -5.8560   -7.1850   30.3270 H     454  TIP443      0.2052
   1525 H2         -4.3900   -7.0240   29.9870 H     454  TIP443      0.2052
   1526 OH2         6.2910   -6.2330    7.3760 O.3   455  TIP444     -0.4105
   1527 H1          5.9470   -6.5610    6.5460 H     455  TIP444      0.2052
   1528 H2          5.7150   -5.5030    7.6030 H     455  TIP444      0.2052
   1529 OH2       -32.2450  -11.2780    9.3770 O.3   456  TIP445     -0.4105
   1530 H1        -32.0120  -10.5170    8.8460 H     456  TIP445      0.2052
   1531 H2        -32.6960  -10.9120   10.1370 H     456  TIP445      0.2052
   1532 OH2        15.1490  -18.3690   -0.3080 O.3   457  TIP446     -0.4105
   1533 H1         14.4560  -17.7130   -0.2340 H     457  TIP446      0.2052
   1534 H2         15.8100  -18.0920    0.3260 H     457  TIP446      0.2052
   1535 OH2       -12.7550  -19.4580   -0.5340 O.3   458  TIP447     -0.4105
   1536 H1        -13.4260  -19.3870   -1.2130 H     458  TIP447      0.2052
   1537 H2        -13.2470  -19.5350    0.2830 H     458  TIP447      0.2052
   1538 OH2         6.0200   -5.1200   19.9960 O.3   459  TIP448     -0.4105
   1539 H1          5.1590   -4.7630   19.7780 H     459  TIP448      0.2052
   1540 H2          6.0120   -6.0060   19.6340 H     459  TIP448      0.2052
   1541 OH2         7.7250   25.6450   20.1350 O.3   460  TIP449     -0.4105
   1542 H1          7.8350   24.7210   20.3600 H     460  TIP449      0.2052
   1543 H2          7.9410   25.6920   19.2040 H     460  TIP449      0.2052
   1544 OH2        -3.3590  -25.0810  -19.7230 O.3   461  TIP450     -0.4105
   1545 H1         -4.0700  -25.6760  -19.9630 H     461  TIP450      0.2052
   1546 H2         -3.0120  -24.7710  -20.5590 H     461  TIP450      0.2052
   1547 OH2       -20.9950   -5.8500   -6.7230 O.3   462  TIP451     -0.4105
   1548 H1        -21.7060   -5.2780   -7.0130 H     462  TIP451      0.2052
   1549 H2        -20.3640   -5.2590   -6.3120 H     462  TIP451      0.2052
   1550 OH2         7.6320    3.1080    8.2320 O.3   463  TIP452     -0.4105
   1551 H1          8.0460    2.5070    8.8520 H     463  TIP452      0.2052
   1552 H2          7.8560    2.7560    7.3710 H     463  TIP452      0.2052
   1553 OH2        11.3700  -14.0800    1.4920 O.3   464  TIP453     -0.4105
   1554 H1         12.2310  -14.2480    1.8750 H     464  TIP453      0.2052
   1555 H2         11.4090  -14.4870    0.6260 H     464  TIP453      0.2052
   1556 OH2        -3.5830  -13.0210  -22.2960 O.3   465  TIP454     -0.4105
   1557 H1         -4.2300  -12.4480  -21.8860 H     465  TIP454      0.2052
   1558 H2         -4.0060  -13.3260  -23.0980 H     465  TIP454      0.2052
   1559 OH2         8.3580    4.1560   -5.8790 O.3   466  TIP455     -0.4105
   1560 H1          8.9790    4.8830   -5.9070 H     466  TIP455      0.2052
   1561 H2          8.6040    3.6610   -5.0970 H     466  TIP455      0.2052
   1562 OH2        -0.8160  -19.3110   33.8890 O.3   467  TIP456     -0.4105
   1563 H1         -0.8540  -19.7020   33.0160 H     467  TIP456      0.2052
   1564 H2         -0.7030  -18.3740   33.7270 H     467  TIP456      0.2052
   1565 OH2        -3.3250   -7.7610  -29.2340 O.3   468  TIP457     -0.4105
   1566 H1         -3.0330   -7.3070  -28.4440 H     468  TIP457      0.2052
   1567 H2         -2.8050   -7.3750  -29.9390 H     468  TIP457      0.2052
   1568 OH2         0.7750  -18.2090   -3.2090 O.3   469  TIP458     -0.4105
   1569 H1          0.5550  -18.5100   -2.3280 H     469  TIP458      0.2052
   1570 H2          1.6870  -18.4730   -3.3320 H     469  TIP458      0.2052
   1571 OH2        -2.9640   -4.2090   -5.9340 O.3   470  TIP459     -0.4105
   1572 H1         -2.7160   -4.3280   -6.8510 H     470  TIP459      0.2052
   1573 H2         -3.9210   -4.2170   -5.9410 H     470  TIP459      0.2052
   1574 OH2         6.3110   23.3600   -3.5690 O.3   471  TIP460     -0.4105
   1575 H1          6.2030   24.3090   -3.6240 H     471  TIP460      0.2052
   1576 H2          5.4580   23.0380   -3.2750 H     471  TIP460      0.2052
   1577 OH2        -3.7590  -14.5070   26.0020 O.3   472  TIP461     -0.4105
   1578 H1         -4.5000  -14.3560   25.4150 H     472  TIP461      0.2052
   1579 H2         -4.1260  -14.4150   26.8810 H     472  TIP461      0.2052
   1580 OH2        -8.9060   23.1950   -8.4700 O.3   473  TIP462     -0.4105
   1581 H1         -8.6760   24.1090   -8.6390 H     473  TIP462      0.2052
   1582 H2         -8.2100   22.6900   -8.8900 H     473  TIP462      0.2052
   1583 OH2        14.0730  -22.9350   -2.8580 O.3   474  TIP463     -0.4105
   1584 H1         14.5180  -22.1730   -2.4880 H     474  TIP463      0.2052
   1585 H2         13.1420  -22.7620   -2.7160 H     474  TIP463      0.2052
   1586 OH2        10.3090   13.8480    7.9310 O.3   475  TIP464     -0.4105
   1587 H1         10.2180   14.7990    7.8690 H     475  TIP464      0.2052
   1588 H2          9.5120   13.5040    7.5280 H     475  TIP464      0.2052
   1589 OH2         4.0430  -13.5330    0.1480 O.3   476  TIP465     -0.4105
   1590 H1          3.9850  -12.6380    0.4840 H     476  TIP465      0.2052
   1591 H2          3.3980  -13.5660   -0.5580 H     476  TIP465      0.2052
   1592 OH2         4.1260  -23.5100    2.7220 O.3   477  TIP466     -0.4105
   1593 H1          4.0760  -24.0190    3.5310 H     477  TIP466      0.2052
   1594 H2          4.1090  -22.5980    3.0110 H     477  TIP466      0.2052
   1595 OH2        10.2050   -9.1380    2.4100 O.3   478  TIP467     -0.4105
   1596 H1         10.4070   -8.6570    3.2130 H     478  TIP467      0.2052
   1597 H2         10.8790   -9.8160    2.3610 H     478  TIP467      0.2052
   1598 OH2       -11.1420  -10.5720   32.4660 O.3   479  TIP468     -0.4105
   1599 H1        -11.7700  -11.1240   32.9320 H     479  TIP468      0.2052
   1600 H2        -11.1530  -10.9010   31.5670 H     479  TIP468      0.2052
   1601 OH2        16.1530   13.2120   -0.8190 O.3   480  TIP469     -0.4105
   1602 H1         15.3730   12.7570   -0.5030 H     480  TIP469      0.2052
   1603 H2         15.8650   14.1150   -0.9540 H     480  TIP469      0.2052
   1604 OH2        -0.4190    9.5590   14.6090 O.3   481  TIP470     -0.4105
   1605 H1          0.4470    9.2370   14.8590 H     481  TIP470      0.2052
   1606 H2         -0.6040    9.1250   13.7760 H     481  TIP470      0.2052
   1607 OH2         5.6880  -16.8490   -4.5660 O.3   482  TIP471     -0.4105
   1608 H1          5.6640  -17.1320   -5.4800 H     482  TIP471      0.2052
   1609 H2          6.3310  -17.4240   -4.1520 H     482  TIP471      0.2052
   1610 OH2         3.5000  -18.0400   13.4160 O.3   483  TIP472     -0.4105
   1611 H1          3.2280  -18.7040   12.7830 H     483  TIP472      0.2052
   1612 H2          4.4230  -18.2310   13.5820 H     483  TIP472      0.2052
   1613 OH2       -24.7930   33.5110    0.6040 O.3   484  TIP473     -0.4105
   1614 H1        -24.6300   34.2110   -0.0290 H     484  TIP473      0.2052
   1615 H2        -25.2220   33.9490    1.3400 H     484  TIP473      0.2052
   1616 OH2         2.5490   -1.0410  -14.0330 O.3   485  TIP474     -0.4105
   1617 H1          2.0640   -1.1860  -13.2200 H     485  TIP474      0.2052
   1618 H2          2.1120   -0.2960  -14.4440 H     485  TIP474      0.2052
   1619 OH2        -2.3720   -1.4050   -1.1910 O.3   486  TIP475     -0.4105
   1620 H1         -1.8340   -2.1270   -0.8650 H     486  TIP475      0.2052
   1621 H2         -3.1750   -1.4510   -0.6720 H     486  TIP475      0.2052
   1622 OH2         4.4360  -13.8770   -4.1700 O.3   487  TIP476     -0.4105
   1623 H1          5.1730  -13.4120   -3.7740 H     487  TIP476      0.2052
   1624 H2          4.7690  -14.1800   -5.0140 H     487  TIP476      0.2052
   1625 OH2        14.1660    8.8090   14.5430 O.3   488  TIP477     -0.4105
   1626 H1         14.7420    9.4690   14.1570 H     488  TIP477      0.2052
   1627 H2         14.4200    7.9910   14.1170 H     488  TIP477      0.2052
   1628 OH2         4.1750    9.6420   -5.7390 O.3   489  TIP478     -0.4105
   1629 H1          3.6690    9.4440   -4.9510 H     489  TIP478      0.2052
   1630 H2          4.7990    8.9200   -5.8120 H     489  TIP478      0.2052
   1631 OH2       -12.3270    4.5870   -9.6440 O.3   490  TIP479     -0.4105
   1632 H1        -12.0120    3.6870   -9.5680 H     490  TIP479      0.2052
   1633 H2        -11.6800    5.1080   -9.1670 H     490  TIP479      0.2052
   1634 OH2       -29.6850  -11.6770   11.5790 O.3   491  TIP480     -0.4105
   1635 H1        -29.1230  -11.2450   12.2220 H     491  TIP480      0.2052
   1636 H2        -29.1160  -11.8220   10.8230 H     491  TIP480      0.2052
   1637 OH2         0.1920   13.3710  -24.7980 O.3   492  TIP481     -0.4105
   1638 H1          0.8440   13.9400  -24.3890 H     492  TIP481      0.2052
   1639 H2         -0.2440   12.9390  -24.0640 H     492  TIP481      0.2052
   1640 OH2         7.8990   15.0170  -24.7260 O.3   493  TIP482     -0.4105
   1641 H1          7.9050   15.2330  -25.6590 H     493  TIP482      0.2052
   1642 H2          7.6500   14.0930  -24.6950 H     493  TIP482      0.2052
   1643 OH2        11.8910  -15.0820   -7.7970 O.3   494  TIP483     -0.4105
   1644 H1         11.7980  -14.7240   -8.6800 H     494  TIP483      0.2052
   1645 H2         12.3830  -14.4140   -7.3190 H     494  TIP483      0.2052
   1646 OH2         6.8790  -31.4550   -3.9530 O.3   495  TIP484     -0.4105
   1647 H1          5.9860  -31.4750   -4.2980 H     495  TIP484      0.2052
   1648 H2          6.9050  -30.6750   -3.4000 H     495  TIP484      0.2052
   1649 OH2         6.3060  -18.4480   10.2690 O.3   496  TIP485     -0.4105
   1650 H1          6.3130  -19.4030   10.3300 H     496  TIP485      0.2052
   1651 H2          5.4200  -18.1960   10.5300 H     496  TIP485      0.2052
   1652 OH2        -5.9570    3.3360  -24.8070 O.3   497  TIP486     -0.4105
   1653 H1         -5.5240    2.8830  -24.0840 H     497  TIP486      0.2052
   1654 H2         -5.3470    4.0300  -25.0560 H     497  TIP486      0.2052
   1655 OH2        -6.0580  -12.8040   34.6770 O.3   498  TIP487     -0.4105
   1656 H1         -5.4310  -12.9180   33.9620 H     498  TIP487      0.2052
   1657 H2         -5.5960  -12.2640   35.3180 H     498  TIP487      0.2052
   1658 OH2       -13.0720   -6.1820    6.9180 O.3   499  TIP488     -0.4105
   1659 H1        -12.2860   -6.3000    7.4520 H     499  TIP488      0.2052
   1660 H2        -12.9630   -6.7970    6.1930 H     499  TIP488      0.2052
   1661 OH2       -16.6860    8.0270  -10.6890 O.3   500  TIP489     -0.4105
   1662 H1        -15.9060    8.5410  -10.4790 H     500  TIP489      0.2052
   1663 H2        -16.4700    7.5880  -11.5110 H     500  TIP489      0.2052
   1664 OH2        17.7850   -0.2960    8.6170 O.3   501  TIP490     -0.4105
   1665 H1         18.6770   -0.0200    8.4060 H     501  TIP490      0.2052
   1666 H2         17.7520   -1.2170    8.3600 H     501  TIP490      0.2052
   1667 OH2        -3.1670  -17.0300   -6.0010 O.3   502  TIP491     -0.4105
   1668 H1         -2.8110  -17.1370   -6.8830 H     502  TIP491      0.2052
   1669 H2         -3.8880  -17.6580   -5.9560 H     502  TIP491      0.2052
   1670 OH2        25.3680   10.4100  -13.5580 O.3   503  TIP492     -0.4105
   1671 H1         25.2340    9.5440  -13.9430 H     503  TIP492      0.2052
   1672 H2         25.8630   10.8930  -14.2200 H     503  TIP492      0.2052
   1673 OH2        -8.8570  -19.0360   29.1900 O.3   504  TIP493     -0.4105
   1674 H1         -9.1670  -19.9400   29.1420 H     504  TIP493      0.2052
   1675 H2         -7.9040  -19.1110   29.2420 H     504  TIP493      0.2052
   1676 OH2         2.6800   -1.5150  -18.2680 O.3   505  TIP494     -0.4105
   1677 H1          3.1170   -1.2940  -19.0910 H     505  TIP494      0.2052
   1678 H2          2.4230   -0.6700  -17.8990 H     505  TIP494      0.2052
   1679 OH2        17.2460   -8.7430   -0.7570 O.3   506  TIP495     -0.4105
   1680 H1         17.3860   -8.5110   -1.6750 H     506  TIP495      0.2052
   1681 H2         16.2940   -8.7490   -0.6540 H     506  TIP495      0.2052
   1682 OH2         4.6700  -24.1650    5.9490 O.3   507  TIP496     -0.4105
   1683 H1          3.7530  -24.0930    5.6840 H     507  TIP496      0.2052
   1684 H2          4.6710  -23.9260    6.8760 H     507  TIP496      0.2052
   1685 OH2        20.6470  -11.2030  -12.3390 O.3   508  TIP497     -0.4105
   1686 H1         21.1410  -11.9000  -11.9060 H     508  TIP497      0.2052
   1687 H2         20.8160  -10.4250  -11.8080 H     508  TIP497      0.2052
   1688 OH2         1.4710   24.0750   -2.2490 O.3   509  TIP498     -0.4105
   1689 H1          2.3520   24.3200   -1.9660 H     509  TIP498      0.2052
   1690 H2          1.6030   23.6320   -3.0870 H     509  TIP498      0.2052
   1691 OH2         2.2850   11.2880  -22.7320 O.3   510  TIP499     -0.4105
   1692 H1          1.9040   10.4100  -22.7220 H     510  TIP499      0.2052
   1693 H2          1.7310   11.7960  -22.1400 H     510  TIP499      0.2052
   1694 OH2        -8.4250   13.9170  -13.2900 O.3   511  TIP500     -0.4105
   1695 H1         -8.4980   13.4680  -12.4470 H     511  TIP500      0.2052
   1696 H2         -8.7140   13.2690  -13.9320 H     511  TIP500      0.2052
   1697 OH2        23.2080   10.9600    4.3410 O.3   512  TIP501     -0.4105
   1698 H1         23.2200   11.4320    3.5090 H     512  TIP501      0.2052
   1699 H2         22.3070   11.0490    4.6540 H     512  TIP501      0.2052
   1700 OH2       -17.3950   10.2850   -4.6300 O.3   513  TIP502     -0.4105
   1701 H1        -16.4700   10.4530   -4.8080 H     513  TIP502      0.2052
   1702 H2        -17.6450    9.6180   -5.2700 H     513  TIP502      0.2052
   1703 OH2         5.1340  -29.3010   -3.1670 O.3   514  TIP503     -0.4105
   1704 H1          5.0070  -28.8790   -2.3180 H     514  TIP503      0.2052
   1705 H2          5.7780  -28.7520   -3.6150 H     514  TIP503      0.2052
   1706 OH2        -6.2670   22.8880   -7.0860 O.3   515  TIP504     -0.4105
   1707 H1         -5.7180   22.3350   -6.5290 H     515  TIP504      0.2052
   1708 H2         -6.1710   23.7670   -6.7200 H     515  TIP504      0.2052
   1709 OH2         3.4550   18.5740  -32.9750 O.3   516  TIP505     -0.4105
   1710 H1          2.7870   18.5040  -32.2930 H     516  TIP505      0.2052
   1711 H2          4.2330   18.8900  -32.5170 H     516  TIP505      0.2052
   1712 OH2        26.1340  -16.9200   -0.8660 O.3   517  TIP506     -0.4105
   1713 H1         26.2840  -17.0820    0.0650 H     517  TIP506      0.2052
   1714 H2         26.3850  -17.7380   -1.2950 H     517  TIP506      0.2052
   1715 OH2        -3.1610    8.6990  -23.1900 O.3   518  TIP507     -0.4105
   1716 H1         -2.3230    8.2510  -23.3020 H     518  TIP507      0.2052
   1717 H2         -3.1180    9.0720  -22.3090 H     518  TIP507      0.2052
   1718 OH2        12.1890   24.6000   19.9620 O.3   519  TIP508     -0.4105
   1719 H1         11.2780   24.3070   19.9200 H     519  TIP508      0.2052
   1720 H2         12.2060   25.4070   19.4480 H     519  TIP508      0.2052
   1721 OH2        -5.9230   -8.1870  -30.0850 O.3   520  TIP509     -0.4105
   1722 H1         -4.9960   -7.9680  -29.9910 H     520  TIP509      0.2052
   1723 H2         -6.2280   -8.3310  -29.1880 H     520  TIP509      0.2052
   1724 OH2         8.8850   20.1310  -13.4110 O.3   521  TIP510     -0.4105
   1725 H1          8.0740   20.4000  -12.9790 H     521  TIP510      0.2052
   1726 H2          9.4040   19.7250  -12.7170 H     521  TIP510      0.2052
   1727 OH2        -9.8400  -20.4780    4.5310 O.3   522  TIP511     -0.4105
   1728 H1        -10.2260  -19.9890    5.2580 H     522  TIP511      0.2052
   1729 H2        -10.5730  -20.6510    3.9410 H     522  TIP511      0.2052
   1730 OH2       -14.3040    9.3570   20.8550 O.3   523  TIP512     -0.4105
   1731 H1        -14.0060    9.1320   19.9730 H     523  TIP512      0.2052
   1732 H2        -13.5290    9.7220   21.2830 H     523  TIP512      0.2052
   1733 OH2       -17.5810  -16.5060    7.8630 O.3   524  TIP513     -0.4105
   1734 H1        -17.7670  -15.8620    8.5460 H     524  TIP513      0.2052
   1735 H2        -18.4390  -16.7230    7.4980 H     524  TIP513      0.2052
   1736 OH2        -6.6620  -26.3810  -20.9540 O.3   525  TIP514     -0.4105
   1737 H1         -5.9650  -26.5280  -21.5940 H     525  TIP514      0.2052
   1738 H2         -7.0840  -27.2350  -20.8580 H     525  TIP514      0.2052
   1739 OH2        19.0880  -15.3810   -7.6680 O.3   526  TIP515     -0.4105
   1740 H1         19.3230  -15.9580   -8.3950 H     526  TIP515      0.2052
   1741 H2         18.3050  -15.7790   -7.2890 H     526  TIP515      0.2052
   1742 OH2       -22.4230   -7.4090   14.4980 O.3   527  TIP516     -0.4105
   1743 H1        -22.3420   -6.6310   15.0500 H     527  TIP516      0.2052
   1744 H2        -22.1430   -7.1180   13.6300 H     527  TIP516      0.2052
   1745 OH2         8.1630   -9.8640  -10.2820 O.3   528  TIP517     -0.4105
   1746 H1          8.6330  -10.5720   -9.8400 H     528  TIP517      0.2052
   1747 H2          7.2450  -10.1320  -10.2550 H     528  TIP517      0.2052
   1748 OH2        -4.2450   16.7400  -10.5660 O.3   529  TIP518     -0.4105
   1749 H1         -4.3510   17.3870  -11.2640 H     529  TIP518      0.2052
   1750 H2         -4.0590   15.9210  -11.0250 H     529  TIP518      0.2052
   1751 OH2         2.3270   -0.9240    8.6360 O.3   530  TIP519     -0.4105
   1752 H1          1.8930   -0.1640    9.0240 H     530  TIP519      0.2052
   1753 H2          1.8450   -1.0880    7.8250 H     530  TIP519      0.2052
   1754 OH2        -5.8940   21.3430  -21.5630 O.3   531  TIP520     -0.4105
   1755 H1         -6.6060   21.3450  -22.2030 H     531  TIP520      0.2052
   1756 H2         -5.9320   20.4740  -21.1650 H     531  TIP520      0.2052
   1757 OH2       -19.0420   20.4600   -0.6500 O.3   532  TIP521     -0.4105
   1758 H1        -19.8430   20.5820   -1.1590 H     532  TIP521      0.2052
   1759 H2        -18.5070   21.2260   -0.8570 H     532  TIP521      0.2052
   1760 OH2        -1.2950   26.7920    4.5120 O.3   533  TIP522     -0.4105
   1761 H1         -0.8190   26.8020    3.6820 H     533  TIP522      0.2052
   1762 H2         -1.1750   27.6730    4.8680 H     533  TIP522      0.2052
   1763 OH2        20.5910   -4.6390   15.1130 O.3   534  TIP523     -0.4105
   1764 H1         20.1430   -3.9320   15.5790 H     534  TIP523      0.2052
   1765 H2         20.2060   -4.6300   14.2370 H     534  TIP523      0.2052
   1766 OH2       -14.4560    0.2410   -9.9010 O.3   535  TIP524     -0.4105
   1767 H1        -13.9750    0.5810   -9.1470 H     535  TIP524      0.2052
   1768 H2        -13.8780   -0.4250  -10.2740 H     535  TIP524      0.2052
   1769 OH2        -0.6030   -0.3450    9.4290 O.3   536  TIP525     -0.4105
   1770 H1         -1.3120   -0.0110    9.9790 H     536  TIP525      0.2052
   1771 H2         -1.0280   -0.5760    8.6030 H     536  TIP525      0.2052
   1772 OH2       -30.1240   -7.0880   13.1290 O.3   537  TIP526     -0.4105
   1773 H1        -29.5970   -6.6470   12.4630 H     537  TIP526      0.2052
   1774 H2        -30.3720   -7.9200   12.7270 H     537  TIP526      0.2052
   1775 OH2        -6.3030   -9.4060  -22.2990 O.3   538  TIP527     -0.4105
   1776 H1         -6.6420   -8.5120  -22.3090 H     538  TIP527      0.2052
   1777 H2         -7.0800   -9.9590  -22.3790 H     538  TIP527      0.2052
   1778 OH2        12.9160    2.6020   14.1150 O.3   539  TIP528     -0.4105
   1779 H1         12.6540    3.4960   13.8970 H     539  TIP528      0.2052
   1780 H2         12.8480    2.1240   13.2880 H     539  TIP528      0.2052
   1781 OH2         0.0370   -1.4680   32.2180 O.3   540  TIP529     -0.4105
   1782 H1         -0.4120   -1.9460   31.5210 H     540  TIP529      0.2052
   1783 H2         -0.5140   -0.7010   32.3760 H     540  TIP529      0.2052
   1784 OH2       -20.1430  -20.5870  -13.8950 O.3   541  TIP530     -0.4105
   1785 H1        -20.7200  -20.7320  -14.6450 H     541  TIP530      0.2052
   1786 H2        -20.5800  -21.0300  -13.1670 H     541  TIP530      0.2052
   1787 OH2       -23.4300  -11.3260   19.4470 O.3   542  TIP531     -0.4105
   1788 H1        -22.8910  -10.7460   18.9090 H     542  TIP531      0.2052
   1789 H2        -23.0430  -11.2710   20.3210 H     542  TIP531      0.2052
   1790 OH2       -29.6370   -1.3300   14.1740 O.3   543  TIP532     -0.4105
   1791 H1        -29.4680   -1.0500   13.2740 H     543  TIP532      0.2052
   1792 H2        -29.2380   -2.1980   14.2340 H     543  TIP532      0.2052
   1793 OH2        15.1750   16.1220    1.0880 O.3   544  TIP533     -0.4105
   1794 H1         16.0810   15.8400    1.2190 H     544  TIP533      0.2052
   1795 H2         15.2140   16.7110    0.3350 H     544  TIP533      0.2052
   1796 OH2         2.3880   20.6990  -22.8960 O.3   545  TIP534     -0.4105
   1797 H1          2.0050   21.3530  -23.4810 H     545  TIP534      0.2052
   1798 H2          2.1930   21.0200  -22.0160 H     545  TIP534      0.2052
   1799 OH2        -8.4760    9.1000  -16.9880 O.3   546  TIP535     -0.4105
   1800 H1         -8.1260    9.1340  -16.0980 H     546  TIP535      0.2052
   1801 H2         -9.3740    8.7860  -16.8810 H     546  TIP535      0.2052
   1802 OH2         1.2290   -0.6190    5.8650 O.3   547  TIP536     -0.4105
   1803 H1          1.8610   -0.4250    5.1720 H     547  TIP536      0.2052
   1804 H2          0.8710    0.2340    6.1110 H     547  TIP536      0.2052
   1805 OH2        16.6420   -3.5280  -10.7850 O.3   548  TIP537     -0.4105
   1806 H1         16.8860   -2.7780  -10.2430 H     548  TIP537      0.2052
   1807 H2         15.9650   -3.1900  -11.3720 H     548  TIP537      0.2052
   1808 OH2       -31.4650  -10.2510    1.0360 O.3   549  TIP538     -0.4105
   1809 H1        -31.6080  -10.9440    1.6800 H     549  TIP538      0.2052
   1810 H2        -30.5670  -10.3860    0.7330 H     549  TIP538      0.2052
   1811 OH2        -3.1900  -12.5540   31.6870 O.3   550  TIP539     -0.4105
   1812 H1         -3.3080  -13.4810   31.8970 H     550  TIP539      0.2052
   1813 H2         -3.9070  -12.3520   31.0860 H     550  TIP539      0.2052
   1814 OH2        -4.6360  -19.4960  -21.5580 O.3   551  TIP540     -0.4105
   1815 H1         -4.4570  -20.4320  -21.4750 H     551  TIP540      0.2052
   1816 H2         -4.2220  -19.1030  -20.7900 H     551  TIP540      0.2052
   1817 OH2        -9.9820   -0.7050    4.9460 O.3   552  TIP541     -0.4105
   1818 H1        -10.4440   -1.5430    4.9260 H     552  TIP541      0.2052
   1819 H2        -10.5220   -0.1210    4.4120 H     552  TIP541      0.2052
   1820 OH2       -29.0560  -11.1930    0.0640 O.3   553  TIP542     -0.4105
   1821 H1        -28.4190  -11.5270    0.6950 H     553  TIP542      0.2052
   1822 H2        -28.5440  -10.6320   -0.5190 H     553  TIP542      0.2052
   1823 OH2        -4.3740  -14.7130   -0.1840 O.3   554  TIP543     -0.4105
   1824 H1         -3.7630  -14.9230    0.5230 H     554  TIP543      0.2052
   1825 H2         -4.6700  -15.5640   -0.5060 H     554  TIP543      0.2052
   1826 OH2        15.4160    5.2390   16.8260 O.3   555  TIP544     -0.4105
   1827 H1         15.4830    5.5290   15.9160 H     555  TIP544      0.2052
   1828 H2         14.5300    5.4860   17.0920 H     555  TIP544      0.2052
   1829 OH2        -1.4680  -27.8750  -11.8290 O.3   556  TIP545     -0.4105
   1830 H1         -1.9080  -28.1390  -11.0220 H     556  TIP545      0.2052
   1831 H2         -2.0230  -27.1830  -12.1900 H     556  TIP545      0.2052
   1832 OH2        -1.7400  -14.8910   36.0640 O.3   557  TIP546     -0.4105
   1833 H1         -0.9250  -14.9610   36.5600 H     557  TIP546      0.2052
   1834 H2         -2.4280  -14.9000   36.7300 H     557  TIP546      0.2052
   1835 OH2        20.1220  -10.0060    1.9550 O.3   558  TIP547     -0.4105
   1836 H1         20.5340  -10.8700    1.9490 H     558  TIP547      0.2052
   1837 H2         20.8520   -9.3910    1.8790 H     558  TIP547      0.2052
   1838 OH2        15.9950  -20.9720   -1.0780 O.3   559  TIP548     -0.4105
   1839 H1         16.8510  -21.1120   -1.4820 H     559  TIP548      0.2052
   1840 H2         15.8310  -20.0340   -1.1820 H     559  TIP548      0.2052
   1841 OH2         0.4530    8.5480   -8.9910 O.3   560  TIP549     -0.4105
   1842 H1          0.4540    9.3560   -8.4790 H     560  TIP549      0.2052
   1843 H2          1.2860    8.5620   -9.4630 H     560  TIP549      0.2052
   1844 OH2        18.1290    1.2590   -9.8770 O.3   561  TIP550     -0.4105
   1845 H1         18.8830    1.6630  -10.3060 H     561  TIP550      0.2052
   1846 H2         17.3720    1.5930  -10.3580 H     561  TIP550      0.2052
   1847 OH2         0.1890   14.7550   23.5040 O.3   562  TIP551     -0.4105
   1848 H1          0.2300   14.7610   24.4600 H     562  TIP551      0.2052
   1849 H2         -0.7440   14.8280   23.3020 H     562  TIP551      0.2052
   1850 OH2        -2.9790   12.8790  -15.3580 O.3   563  TIP552     -0.4105
   1851 H1         -3.2820   12.2520  -14.7010 H     563  TIP552      0.2052
   1852 H2         -3.6890   12.9160  -15.9990 H     563  TIP552      0.2052
   1853 OH2        -3.0870   -2.1920   28.0230 O.3   564  TIP553     -0.4105
   1854 H1         -3.6220   -2.9860   28.0050 H     564  TIP553      0.2052
   1855 H2         -3.3880   -1.6830   27.2710 H     564  TIP553      0.2052
   1856 OH2       -27.1890   18.5680    1.6140 O.3   565  TIP554     -0.4105
   1857 H1        -26.3200   18.6870    1.9970 H     565  TIP554      0.2052
   1858 H2        -27.2580   19.2590    0.9550 H     565  TIP554      0.2052
   1859 OH2        12.8830   -9.8150   14.2240 O.3   566  TIP555     -0.4105
   1860 H1         12.2910   -9.0800   14.0640 H     566  TIP555      0.2052
   1861 H2         12.4370  -10.5700   13.8390 H     566  TIP555      0.2052
   1862 OH2        -4.6870  -20.4660  -10.2330 O.3   567  TIP556     -0.4105
   1863 H1         -5.4800  -20.2110   -9.7620 H     567  TIP556      0.2052
   1864 H2         -4.8090  -21.3950  -10.4250 H     567  TIP556      0.2052
   1865 OH2        11.6650    3.6530   11.3590 O.3   568  TIP557     -0.4105
   1866 H1         11.2520    3.8820   10.5260 H     568  TIP557      0.2052
   1867 H2         12.4460    3.1590   11.1110 H     568  TIP557      0.2052
   1868 OH2       -17.6040   31.2270    8.5640 O.3   569  TIP558     -0.4105
   1869 H1        -17.6820   31.9060    7.8940 H     569  TIP558      0.2052
   1870 H2        -16.6630   31.0670    8.6350 H     569  TIP558      0.2052
   1871 OH2       -35.0570    1.4770    6.5820 O.3   570  TIP559     -0.4105
   1872 H1        -34.8090    1.9180    7.3940 H     570  TIP559      0.2052
   1873 H2        -34.8020    0.5640    6.7160 H     570  TIP559      0.2052
   1874 OH2       -10.8570   10.1140   19.2560 O.3   571  TIP560     -0.4105
   1875 H1        -10.8910    9.9310   20.1950 H     571  TIP560      0.2052
   1876 H2         -9.9440   10.3480   19.0910 H     571  TIP560      0.2052
   1877 OH2         1.5400  -24.6940   18.5570 O.3   572  TIP561     -0.4105
   1878 H1          1.5190  -24.2360   17.7170 H     572  TIP561      0.2052
   1879 H2          0.7910  -24.3450   19.0400 H     572  TIP561      0.2052
   1880 OH2        -9.5300   -3.6460   16.6050 O.3   573  TIP562     -0.4105
   1881 H1         -8.7750   -3.0860   16.7840 H     573  TIP562      0.2052
   1882 H2        -10.2850   -3.1290   16.8880 H     573  TIP562      0.2052
   1883 OH2       -40.0850   -7.2250   10.5480 O.3   574  TIP563     -0.4105
   1884 H1        -40.4060   -7.6260    9.7400 H     574  TIP563      0.2052
   1885 H2        -40.6430   -7.5890   11.2350 H     574  TIP563      0.2052
   1886 OH2        10.8020   10.2880    8.7350 O.3   575  TIP564     -0.4105
   1887 H1         11.3850   10.1910    7.9820 H     575  TIP564      0.2052
   1888 H2         11.0470   11.1290    9.1210 H     575  TIP564      0.2052
   1889 OH2        -1.4930   24.2360   22.0100 O.3   576  TIP565     -0.4105
   1890 H1         -2.1320   23.8000   21.4460 H     576  TIP565      0.2052
   1891 H2         -0.7280   23.6610   21.9960 H     576  TIP565      0.2052
   1892 OH2        -7.9870    0.1390  -27.5060 O.3   577  TIP566     -0.4105
   1893 H1         -7.4510   -0.0390  -28.2780 H     577  TIP566      0.2052
   1894 H2         -7.3550    0.3510  -26.8190 H     577  TIP566      0.2052
   1895 OH2       -25.0630   -6.1690   -1.1810 O.3   578  TIP567     -0.4105
   1896 H1        -25.5210   -5.7360   -0.4610 H     578  TIP567      0.2052
   1897 H2        -25.6090   -6.0010   -1.9490 H     578  TIP567      0.2052
   1898 OH2         2.3960   16.2140   28.7980 O.3   579  TIP568     -0.4105
   1899 H1          1.8140   15.6710   29.3290 H     579  TIP568      0.2052
   1900 H2          2.1900   15.9750   27.8940 H     579  TIP568      0.2052
   1901 OH2       -15.9140   -1.8250   16.2940 O.3   580  TIP569     -0.4105
   1902 H1        -15.4560   -1.6580   17.1190 H     580  TIP569      0.2052
   1903 H2        -15.8600   -0.9970   15.8180 H     580  TIP569      0.2052
   1904 OH2        -0.2750   27.9510   19.9440 O.3   581  TIP570     -0.4105
   1905 H1         -1.0500   28.2020   19.4420 H     581  TIP570      0.2052
   1906 H2         -0.3240   26.9960   19.9990 H     581  TIP570      0.2052
   1907 OH2        10.7640  -28.0530   14.8270 O.3   582  TIP571     -0.4105
   1908 H1          9.8330  -27.8990   14.9880 H     582  TIP571      0.2052
   1909 H2         10.9210  -27.6830   13.9580 H     582  TIP571      0.2052
   1910 OH2         4.2980  -13.2980    4.6670 O.3   583  TIP572     -0.4105
   1911 H1          5.2020  -13.2330    4.3580 H     583  TIP572      0.2052
   1912 H2          3.8350  -13.7510    3.9620 H     583  TIP572      0.2052
   1913 OH2        10.2750  -31.3440   -1.3920 O.3   584  TIP573     -0.4105
   1914 H1         10.5450  -32.2060   -1.0750 H     584  TIP573      0.2052
   1915 H2          9.9460  -30.8930   -0.6140 H     584  TIP573      0.2052
   1916 OH2         6.7880    1.9850   32.4280 O.3   585  TIP574     -0.4105
   1917 H1          6.1440    2.5220   32.8900 H     585  TIP574      0.2052
   1918 H2          7.5990    2.4920   32.4740 H     585  TIP574      0.2052
   1919 OH2        -5.3710   12.6350  -11.2170 O.3   586  TIP575     -0.4105
   1920 H1         -5.3210   13.4130  -11.7720 H     586  TIP575      0.2052
   1921 H2         -5.0230   12.9210  -10.3720 H     586  TIP575      0.2052
   1922 OH2        16.7700  -13.7830    9.2890 O.3   587  TIP576     -0.4105
   1923 H1         16.7140  -13.2810    8.4760 H     587  TIP576      0.2052
   1924 H2         16.9630  -13.1300    9.9620 H     587  TIP576      0.2052
   1925 OH2         6.7440   14.7750   23.5770 O.3   588  TIP577     -0.4105
   1926 H1          6.8830   14.3460   22.7330 H     588  TIP577      0.2052
   1927 H2          6.1110   14.2170   24.0280 H     588  TIP577      0.2052
   1928 OH2       -11.5950   16.2540   15.8440 O.3   589  TIP578     -0.4105
   1929 H1        -10.9440   16.0190   15.1840 H     589  TIP578      0.2052
   1930 H2        -11.6830   17.2040   15.7680 H     589  TIP578      0.2052
   1931 OH2        30.3830    5.1250  -12.7350 O.3   590  TIP579     -0.4105
   1932 H1         30.9230    5.9020  -12.5930 H     590  TIP579      0.2052
   1933 H2         30.8310    4.6450  -13.4310 H     590  TIP579      0.2052
   1934 OH2        11.0400  -11.5890   -6.2540 O.3   591  TIP580     -0.4105
   1935 H1         10.4700  -12.1250   -5.7030 H     591  TIP580      0.2052
   1936 H2         10.7720  -11.7950   -7.1490 H     591  TIP580      0.2052
   1937 OH2       -21.7590   -4.5260   12.4220 O.3   592  TIP581     -0.4105
   1938 H1        -21.2490   -4.2530   13.1850 H     592  TIP581      0.2052
   1939 H2        -22.6260   -4.7300   12.7730 H     592  TIP581      0.2052
   1940 OH2       -29.1520   -9.3180    6.8390 O.3   593  TIP582     -0.4105
   1941 H1        -28.2480   -9.0040    6.8210 H     593  TIP582      0.2052
   1942 H2        -29.5140   -9.0550    5.9930 H     593  TIP582      0.2052
   1943 OH2       -14.9460  -23.5700  -22.3660 O.3   594  TIP583     -0.4105
   1944 H1        -14.7050  -22.6820  -22.1020 H     594  TIP583      0.2052
   1945 H2        -15.4910  -23.4500  -23.1440 H     594  TIP583      0.2052
   1946 OH2        -2.1390    6.9950   -1.7440 O.3   595  TIP584     -0.4105
   1947 H1         -2.7140    7.5380   -1.2060 H     595  TIP584      0.2052
   1948 H2         -2.3220    7.2690   -2.6430 H     595  TIP584      0.2052
   1949 OH2        -3.3700   15.2300    4.6990 O.3   596  TIP585     -0.4105
   1950 H1         -2.8090   16.0030    4.7620 H     596  TIP585      0.2052
   1951 H2         -4.2120   15.5150    5.0540 H     596  TIP585      0.2052
   1952 OH2        21.0070    7.3030   -5.8540 O.3   597  TIP586     -0.4105
   1953 H1         21.4350    6.5500   -5.4480 H     597  TIP586      0.2052
   1954 H2         21.3700    7.3380   -6.7390 H     597  TIP586      0.2052
   1955 OH2        25.0000   17.1690   10.8370 O.3   598  TIP587     -0.4105
   1956 H1         25.9050   16.9080   11.0120 H     598  TIP587      0.2052
   1957 H2         24.5450   16.3470   10.6540 H     598  TIP587      0.2052
   1958 OH2        -8.9290   -6.5800  -13.1650 O.3   599  TIP588     -0.4105
   1959 H1         -9.8480   -6.3190  -13.1020 H     599  TIP588      0.2052
   1960 H2         -8.8500   -6.9680  -14.0360 H     599  TIP588      0.2052
   1961 OH2        30.9770    9.1940   -5.1140 O.3   600  TIP589     -0.4105
   1962 H1         31.2860   10.1000   -5.0960 H     600  TIP589      0.2052
   1963 H2         30.0660    9.2570   -5.4010 H     600  TIP589      0.2052
   1964 OH2         0.6950  -14.7430    8.6980 O.3   601  TIP590     -0.4105
   1965 H1          0.6390  -13.8730    9.0910 H     601  TIP590      0.2052
   1966 H2         -0.0620  -14.7920    8.1130 H     601  TIP590      0.2052
   1967 OH2        -3.5170   -9.9330  -26.1690 O.3   602  TIP591     -0.4105
   1968 H1         -4.1980  -10.4110  -25.6960 H     602  TIP591      0.2052
   1969 H2         -3.9160   -9.0870  -26.3730 H     602  TIP591      0.2052
   1970 OH2        -3.2390   14.3420   14.3050 O.3   603  TIP592     -0.4105
   1971 H1         -2.9640   13.4420   14.4780 H     603  TIP592      0.2052
   1972 H2         -4.1740   14.2740   14.1090 H     603  TIP592      0.2052
   1973 OH2        24.5870   -5.6520   -4.6730 O.3   604  TIP593     -0.4105
   1974 H1         23.8730   -6.2870   -4.7310 H     604  TIP593      0.2052
   1975 H2         24.3150   -4.9320   -5.2420 H     604  TIP593      0.2052
   1976 OH2       -22.3520   -0.7350    2.1010 O.3   605  TIP594     -0.4105
   1977 H1        -21.5000   -0.9740    1.7380 H     605  TIP594      0.2052
   1978 H2        -22.9160   -0.6210    1.3360 H     605  TIP594      0.2052
   1979 OH2        13.2430   24.3770   22.7820 O.3   606  TIP595     -0.4105
   1980 H1         12.4630   24.2510   23.3220 H     606  TIP595      0.2052
   1981 H2         12.9030   24.6440   21.9280 H     606  TIP595      0.2052
   1982 OH2         5.4420   10.9620  -21.1080 O.3   607  TIP596     -0.4105
   1983 H1          5.0880   11.5650  -21.7610 H     607  TIP596      0.2052
   1984 H2          5.1050   10.1040  -21.3660 H     607  TIP596      0.2052
   1985 OH2        15.6740   -5.9000   -1.2110 O.3   608  TIP597     -0.4105
   1986 H1         15.9640   -5.6220   -2.0800 H     608  TIP597      0.2052
   1987 H2         15.3110   -6.7750   -1.3480 H     608  TIP597      0.2052
   1988 OH2       -25.1790  -11.1910   21.6980 O.3   609  TIP598     -0.4105
   1989 H1        -24.8810  -11.5380   20.8570 H     609  TIP598      0.2052
   1990 H2        -26.0020  -11.6490   21.8670 H     609  TIP598      0.2052
   1991 OH2       -17.3690    7.2990   19.8110 O.3   610  TIP599     -0.4105
   1992 H1        -17.4350    6.4040   19.4780 H     610  TIP599      0.2052
   1993 H2        -17.0870    7.1970   20.7200 H     610  TIP599      0.2052
   1994 OH2        11.8190  -32.5620   -5.7260 O.3   611  TIP600     -0.4105
   1995 H1         11.0600  -32.2620   -5.2270 H     611  TIP600      0.2052
   1996 H2         11.6760  -33.5010   -5.8400 H     611  TIP600      0.2052
   1997 OH2         2.3050    5.7050   12.0730 O.3   612  TIP601     -0.4105
   1998 H1          1.3830    5.7900   11.8320 H     612  TIP601      0.2052
   1999 H2          2.7430    5.4430   11.2630 H     612  TIP601      0.2052
   2000 OH2        -9.5170   27.7180    7.4020 O.3   613  TIP602     -0.4105
   2001 H1        -10.0160   27.7840    8.2160 H     613  TIP602      0.2052
   2002 H2         -8.6020   27.7130    7.6810 H     613  TIP602      0.2052
   2003 OH2         9.7130    6.0120  -12.8860 O.3   614  TIP603     -0.4105
   2004 H1          9.3220    5.3910  -12.2720 H     614  TIP603      0.2052
   2005 H2          9.3110    5.8030  -13.7290 H     614  TIP603      0.2052
   2006 OH2       -25.2280   -6.2010    5.3110 O.3   615  TIP604     -0.4105
   2007 H1        -26.0670   -5.7920    5.5220 H     615  TIP604      0.2052
   2008 H2        -25.1290   -6.0720    4.3680 H     615  TIP604      0.2052
   2009 OH2       -22.9130   22.0080   -2.9910 O.3   616  TIP605     -0.4105
   2010 H1        -23.0080   22.8190   -2.4910 H     616  TIP605      0.2052
   2011 H2        -22.1210   21.6010   -2.6400 H     616  TIP605      0.2052
   2012 OH2         4.8120   26.5340   17.0630 O.3   617  TIP606     -0.4105
   2013 H1          5.2650   27.1290   17.6600 H     617  TIP606      0.2052
   2014 H2          4.6800   25.7360   17.5740 H     617  TIP606      0.2052
   2015 OH2         2.5400    7.8160    8.8090 O.3   618  TIP607     -0.4105
   2016 H1          2.8720    7.8740    7.9130 H     618  TIP607      0.2052
   2017 H2          2.8350    6.9590    9.1180 H     618  TIP607      0.2052
   2018 OH2         4.0040  -21.2610  -15.7390 O.3   619  TIP608     -0.4105
   2019 H1          4.2850  -21.6520  -14.9120 H     619  TIP608      0.2052
   2020 H2          3.1110  -21.5810  -15.8650 H     619  TIP608      0.2052
   2021 OH2        23.3900   -9.2290   -6.5790 O.3   620  TIP609     -0.4105
   2022 H1         24.2710   -9.6000   -6.5230 H     620  TIP609      0.2052
   2023 H2         22.8670   -9.9140   -6.9950 H     620  TIP609      0.2052
   2024 OH2       -16.1620   19.4720   -5.4620 O.3   621  TIP610     -0.4105
   2025 H1        -15.4980   18.7860   -5.3840 H     621  TIP610      0.2052
   2026 H2        -16.5160   19.3640   -6.3440 H     621  TIP610      0.2052
   2027 OH2         0.6660  -20.4520   -5.9310 O.3   622  TIP611     -0.4105
   2028 H1          1.0020  -21.2570   -6.3230 H     622  TIP611      0.2052
   2029 H2          1.3840  -19.8250   -6.0160 H     622  TIP611      0.2052
   2030 OH2         7.2760    8.6290   13.6620 O.3   623  TIP612     -0.4105
   2031 H1          6.4210    8.6960   14.0860 H     623  TIP612      0.2052
   2032 H2          7.1480    9.0230   12.7990 H     623  TIP612      0.2052
   2033 OH2         0.5920  -17.7440   29.3870 O.3   624  TIP613     -0.4105
   2034 H1          0.3370  -17.3780   28.5400 H     624  TIP613      0.2052
   2035 H2         -0.1280  -18.3290   29.6220 H     624  TIP613      0.2052
   2036 OH2       -26.7990   -7.8840    7.0090 O.3   625  TIP614     -0.4105
   2037 H1        -26.8230   -7.1900    7.6670 H     625  TIP614      0.2052
   2038 H2        -26.1420   -7.5930    6.3760 H     625  TIP614      0.2052
   2039 OH2        12.3770  -29.7490    4.0170 O.3   626  TIP615     -0.4105
   2040 H1         12.3620  -29.9750    4.9470 H     626  TIP615      0.2052
   2041 H2         12.7670  -30.5120    3.5910 H     626  TIP615      0.2052
   2042 OH2         9.7870   -2.8830  -13.6110 O.3   627  TIP616     -0.4105
   2043 H1          8.9040   -2.8960  -13.2420 H     627  TIP616      0.2052
   2044 H2          9.6610   -3.0700  -14.5410 H     627  TIP616      0.2052
   2045 OH2         1.6040  -20.9320   -0.2210 O.3   628  TIP617     -0.4105
   2046 H1          1.0120  -21.6280    0.0620 H     628  TIP617      0.2052
   2047 H2          2.1910  -21.3560   -0.8480 H     628  TIP617      0.2052
   2048 OH2         7.9540   17.2610   -8.6000 O.3   629  TIP618     -0.4105
   2049 H1          8.4790   17.2530   -7.8000 H     629  TIP618      0.2052
   2050 H2          7.1230   17.6570   -8.3370 H     629  TIP618      0.2052
   2051 OH2       -23.3100  -10.0440   13.0110 O.3   630  TIP619     -0.4105
   2052 H1        -22.9920  -10.6040   13.7200 H     630  TIP619      0.2052
   2053 H2        -23.0870   -9.1560   13.2890 H     630  TIP619      0.2052
   2054 OH2        16.6150    4.1950  -21.5330 O.3   631  TIP620     -0.4105
   2055 H1         16.1770    3.6710  -22.2040 H     631  TIP620      0.2052
   2056 H2         17.2670    4.7050  -22.0140 H     631  TIP620      0.2052
   2057 OH2       -14.2250   18.4430   -8.3710 O.3   632  TIP621     -0.4105
   2058 H1        -14.1290   17.5010   -8.5120 H     632  TIP621      0.2052
   2059 H2        -15.1310   18.6310   -8.6170 H     632  TIP621      0.2052
   2060 OH2         9.5400    4.3100  -19.9100 O.3   633  TIP622     -0.4105
   2061 H1         10.1900    4.9480  -20.2050 H     633  TIP622      0.2052
   2062 H2          8.7340    4.5650  -20.3580 H     633  TIP622      0.2052
   2063 OH2         2.6040   23.5600   11.0430 O.3   634  TIP623     -0.4105
   2064 H1          3.2630   23.0230   10.6040 H     634  TIP623      0.2052
   2065 H2          2.9630   24.4470   11.0200 H     634  TIP623      0.2052
   2066 OH2        13.9210  -11.3960   21.1390 O.3   635  TIP624     -0.4105
   2067 H1         14.4120  -10.9270   20.4650 H     635  TIP624      0.2052
   2068 H2         13.2280  -10.7880   21.3980 H     635  TIP624      0.2052
   2069 OH2       -23.8430   -5.6910   -5.2780 O.3   636  TIP625     -0.4105
   2070 H1        -24.4130   -5.0860   -4.8020 H     636  TIP625      0.2052
   2071 H2        -24.1940   -5.7010   -6.1680 H     636  TIP625      0.2052
   2072 OH2       -15.9500   -3.5210   22.8090 O.3   637  TIP626     -0.4105
   2073 H1        -16.3890   -2.8520   23.3350 H     637  TIP626      0.2052
   2074 H2        -16.6320   -3.8520   22.2260 H     637  TIP626      0.2052
   2075 OH2       -19.0950   -5.9800   15.1020 O.3   638  TIP627     -0.4105
   2076 H1        -19.3580   -5.0680   15.2230 H     638  TIP627      0.2052
   2077 H2        -18.8480   -6.0380   14.1790 H     638  TIP627      0.2052
   2078 OH2        21.6390   17.9680    3.0000 O.3   639  TIP628     -0.4105
   2079 H1         22.4350   17.9400    2.4690 H     639  TIP628      0.2052
   2080 H2         20.9260   17.8650    2.3700 H     639  TIP628      0.2052
   2081 OH2         8.9120   21.6260   12.7510 O.3   640  TIP629     -0.4105
   2082 H1          9.2580   21.9650   11.9260 H     640  TIP629      0.2052
   2083 H2          8.4740   20.8090   12.5100 H     640  TIP629      0.2052
   2084 OH2       -21.3510    7.7350   -5.5750 O.3   641  TIP630     -0.4105
   2085 H1        -21.5630    7.0960   -6.2550 H     641  TIP630      0.2052
   2086 H2        -21.4060    8.5830   -6.0160 H     641  TIP630      0.2052
   2087 OH2        10.3080   -7.7050   23.0640 O.3   642  TIP631     -0.4105
   2088 H1         10.9490   -7.0220   23.2610 H     642  TIP631      0.2052
   2089 H2         10.1900   -8.1690   23.8930 H     642  TIP631      0.2052
   2090 OH2       -12.0210   -6.4380   25.1030 O.3   643  TIP632     -0.4105
   2091 H1        -12.5870   -5.6900   24.9140 H     643  TIP632      0.2052
   2092 H2        -12.6190   -7.1220   25.4020 H     643  TIP632      0.2052
   2093 OH2        -1.6210  -13.3560   39.6560 O.3   644  TIP633     -0.4105
   2094 H1         -1.0730  -13.1430   40.4120 H     644  TIP633      0.2052
   2095 H2         -1.7860  -12.5120   39.2350 H     644  TIP633      0.2052
   2096 OH2        -6.8730   -4.1770   23.3440 O.3   645  TIP634     -0.4105
   2097 H1         -6.1350   -3.6820   23.7010 H     645  TIP634      0.2052
   2098 H2         -7.6410   -3.6460   23.5530 H     645  TIP634      0.2052
   2099 OH2        -5.3000   -7.6890  -25.3620 O.3   646  TIP635     -0.4105
   2100 H1         -6.2230   -7.7390  -25.1160 H     646  TIP635      0.2052
   2101 H2         -5.1590   -6.7660  -25.5760 H     646  TIP635      0.2052
   2102 OH2         4.2970   -8.1580   33.2530 O.3   647  TIP636     -0.4105
   2103 H1          3.9340   -7.4050   33.7180 H     647  TIP636      0.2052
   2104 H2          4.1730   -7.9520   32.3270 H     647  TIP636      0.2052
   2105 OH2        22.4900  -13.9240   -1.6240 O.3   648  TIP637     -0.4105
   2106 H1         22.3990  -14.2080   -0.7140 H     648  TIP637      0.2052
   2107 H2         23.2210  -14.4400   -1.9650 H     648  TIP637      0.2052
   2108 OH2        10.8700   21.7480    6.8680 O.3   649  TIP638     -0.4105
   2109 H1         11.0790   22.2070    7.6810 H     649  TIP638      0.2052
   2110 H2         11.5360   21.0620    6.8020 H     649  TIP638      0.2052
   2111 OH2       -16.3760   26.8740   -1.9210 O.3   650  TIP639     -0.4105
   2112 H1        -16.1560   27.7430   -1.5840 H     650  TIP639      0.2052
   2113 H2        -15.5630   26.5540   -2.3100 H     650  TIP639      0.2052
   2114 OH2       -22.9300   25.1850    5.2440 O.3   651  TIP640     -0.4105
   2115 H1        -23.7770   25.5610    5.0060 H     651  TIP640      0.2052
   2116 H2        -22.5390   24.9260    4.4090 H     651  TIP640      0.2052
   2117 OH2         2.4010   21.0340   22.8860 O.3   652  TIP641     -0.4105
   2118 H1          3.0040   20.5550   22.3170 H     652  TIP641      0.2052
   2119 H2          1.5950   20.5180   22.8700 H     652  TIP641      0.2052
   2120 OH2         4.8380    4.5220   -3.1850 O.3   653  TIP642     -0.4105
   2121 H1          4.6560    5.3870   -2.8160 H     653  TIP642      0.2052
   2122 H2          4.6690    4.6210   -4.1220 H     653  TIP642      0.2052
   2123 OH2        18.2700    1.9200   17.3780 O.3   654  TIP643     -0.4105
   2124 H1         18.1000    2.8620   17.4090 H     654  TIP643      0.2052
   2125 H2         18.4650    1.6820   18.2850 H     654  TIP643      0.2052
   2126 OH2         2.4780    2.0710    4.1870 O.3   655  TIP644     -0.4105
   2127 H1          2.7800    2.9760    4.1100 H     655  TIP644      0.2052
   2128 H2          1.7400    2.0120    3.5810 H     655  TIP644      0.2052
   2129 OH2        22.6560    4.5890  -16.7930 O.3   656  TIP645     -0.4105
   2130 H1         23.2790    4.4920  -16.0730 H     656  TIP645      0.2052
   2131 H2         22.9620    5.3590  -17.2730 H     656  TIP645      0.2052
   2132 OH2         4.8470   17.1230   10.9560 O.3   657  TIP646     -0.4105
   2133 H1          4.9560   17.6780   10.1840 H     657  TIP646      0.2052
   2134 H2          4.6740   17.7380   11.6700 H     657  TIP646      0.2052
   2135 OH2       -33.8000    2.5550    9.0370 O.3   658  TIP647     -0.4105
   2136 H1        -33.0580    3.1500    9.1460 H     658  TIP647      0.2052
   2137 H2        -34.4910    2.9310    9.5840 H     658  TIP647      0.2052
   2138 OH2       -21.2700   -7.3920   -8.9580 O.3   659  TIP648     -0.4105
   2139 H1        -21.1760   -6.9910   -8.0950 H     659  TIP648      0.2052
   2140 H2        -20.5190   -7.9810   -9.0330 H     659  TIP648      0.2052
   2141 OH2       -20.6010    4.4900    6.3470 O.3   660  TIP649     -0.4105
   2142 H1        -20.9230    3.7800    6.9020 H     660  TIP649      0.2052
   2143 H2        -21.3820    5.0020    6.1350 H     660  TIP649      0.2052
   2144 OH2        -8.5580   -3.3590    3.5130 O.3   661  TIP650     -0.4105
   2145 H1         -7.6590   -3.0590    3.6470 H     661  TIP650      0.2052
   2146 H2         -8.8280   -3.6980    4.3670 H     661  TIP650      0.2052
   2147 OH2        20.2880  -13.0050    1.3440 O.3   662  TIP651     -0.4105
   2148 H1         20.2210  -13.7010    1.9970 H     662  TIP651      0.2052
   2149 H2         19.4580  -13.0400    0.8690 H     662  TIP651      0.2052
   2150 OH2        20.0670   -8.8850   -4.2730 O.3   663  TIP652     -0.4105
   2151 H1         20.1490   -9.5570   -3.5960 H     663  TIP652      0.2052
   2152 H2         19.4120   -9.2320   -4.8780 H     663  TIP652      0.2052
   2153 OH2        30.2480   14.2800    1.4460 O.3   664  TIP653     -0.4105
   2154 H1         29.8350   14.8580    0.8050 H     664  TIP653      0.2052
   2155 H2         29.7010   14.3590    2.2280 H     664  TIP653      0.2052
   2156 OH2        21.6350   14.8480   -3.3660 O.3   665  TIP654     -0.4105
   2157 H1         20.8420   14.3120   -3.3540 H     665  TIP654      0.2052
   2158 H2         22.1910   14.4390   -4.0290 H     665  TIP654      0.2052
   2159 OH2        22.6480   13.2680  -18.1210 O.3   666  TIP655     -0.4105
   2160 H1         22.8600   12.4490  -18.5700 H     666  TIP655      0.2052
   2161 H2         22.5430   13.0180  -17.2030 H     666  TIP655      0.2052
   2162 OH2        22.4360    5.7340   12.3070 O.3   667  TIP656     -0.4105
   2163 H1         22.9190    6.5540   12.2080 H     667  TIP656      0.2052
   2164 H2         21.5390    5.9510   12.0510 H     667  TIP656      0.2052
   2165 OH2        -5.9570   -7.8480   34.1830 O.3   668  TIP657     -0.4105
   2166 H1         -5.5440   -8.5610   33.6970 H     668  TIP657      0.2052
   2167 H2         -6.8430   -7.7930   33.8230 H     668  TIP657      0.2052
   2168 OH2       -11.7870    7.1810   21.9690 O.3   669  TIP658     -0.4105
   2169 H1        -12.4260    6.9360   22.6370 H     669  TIP658      0.2052
   2170 H2        -11.2360    6.4050   21.8670 H     669  TIP658      0.2052
   2171 OH2         9.3470   -2.3860   10.2120 O.3   670  TIP659     -0.4105
   2172 H1          9.3020   -3.1800    9.6800 H     670  TIP659      0.2052
   2173 H2          8.5780   -2.4330   10.7800 H     670  TIP659      0.2052
   2174 OH2         0.0650   22.2160  -14.4640 O.3   671  TIP660     -0.4105
   2175 H1          0.3910   21.7630  -13.6860 H     671  TIP660      0.2052
   2176 H2         -0.7290   22.6600  -14.1680 H     671  TIP660      0.2052
   2177 OH2        10.3510   23.3420   26.0270 O.3   672  TIP661     -0.4105
   2178 H1         11.0500   22.9000   25.5450 H     672  TIP661      0.2052
   2179 H2         10.5210   23.1310   26.9450 H     672  TIP661      0.2052
   2180 OH2        15.7010   -2.7760   20.3070 O.3   673  TIP662     -0.4105
   2181 H1         15.7240   -2.2800   21.1250 H     673  TIP662      0.2052
   2182 H2         15.8270   -3.6860   20.5740 H     673  TIP662      0.2052
   2183 OH2         2.6090    5.7620  -24.6040 O.3   674  TIP663     -0.4105
   2184 H1          3.4440    6.2300  -24.5980 H     674  TIP663      0.2052
   2185 H2          2.2570    5.8860  -23.7230 H     674  TIP663      0.2052
   2186 OH2        13.8740   22.5680   12.6010 O.3   675  TIP664     -0.4105
   2187 H1         13.7210   21.7160   12.1910 H     675  TIP664      0.2052
   2188 H2         14.5630   22.4050   13.2440 H     675  TIP664      0.2052
   2189 OH2        10.5690   11.4930  -16.7180 O.3   676  TIP665     -0.4105
   2190 H1         11.0180   11.8070  -15.9330 H     676  TIP665      0.2052
   2191 H2         10.4160   12.2810  -17.2390 H     676  TIP665      0.2052
   2192 OH2       -17.8340   29.9920   -5.3390 O.3   677  TIP666     -0.4105
   2193 H1        -17.9400   30.9380   -5.2370 H     677  TIP666      0.2052
   2194 H2        -18.7280   29.6540   -5.3870 H     677  TIP666      0.2052
   2195 OH2        -8.3100  -28.7290  -21.8240 O.3   678  TIP667     -0.4105
   2196 H1         -8.0870  -28.4370  -22.7080 H     678  TIP667      0.2052
   2197 H2         -8.3490  -29.6830  -21.8890 H     678  TIP667      0.2052
   2198 OH2        22.7070   14.4310   17.2790 O.3   679  TIP668     -0.4105
   2199 H1         22.4570   15.2080   17.7800 H     679  TIP668      0.2052
   2200 H2         21.8850   13.9600   17.1400 H     679  TIP668      0.2052
   2201 OH2         2.4430  -11.3410    3.5530 O.3   680  TIP669     -0.4105
   2202 H1          1.6580  -11.7500    3.1890 H     680  TIP669      0.2052
   2203 H2          2.6060  -11.8160    4.3680 H     680  TIP669      0.2052
   2204 OH2         3.6620    5.3930   30.7270 O.3   681  TIP670     -0.4105
   2205 H1          4.1650    4.7270   31.1960 H     681  TIP670      0.2052
   2206 H2          2.8030    5.3880   31.1500 H     681  TIP670      0.2052
   2207 OH2       -10.2540   -7.0440   -1.8830 O.3   682  TIP671     -0.4105
   2208 H1        -10.0160   -7.7360   -1.2660 H     682  TIP671      0.2052
   2209 H2         -9.6650   -7.1730   -2.6270 H     682  TIP671      0.2052
   2210 OH2         3.8550  -11.3310   -3.4720 O.3   683  TIP672     -0.4105
   2211 H1          3.6100  -12.1640   -3.8750 H     683  TIP672      0.2052
   2212 H2          4.1450  -10.7870   -4.2040 H     683  TIP672      0.2052
   2213 OH2       -22.7500   -2.2900   15.8000 O.3   684  TIP673     -0.4105
   2214 H1        -22.9760   -2.7340   16.6170 H     684  TIP673      0.2052
   2215 H2        -23.5160   -1.7540   15.5980 H     684  TIP673      0.2052
   2216 OH2         2.0960    9.5040   29.8480 O.3   685  TIP674     -0.4105
   2217 H1          1.9900    9.3760   30.7900 H     685  TIP674      0.2052
   2218 H2          2.8180   10.1280   29.7700 H     685  TIP674      0.2052
   2219 OH2        24.6050  -16.9030   -5.0170 O.3   686  TIP675     -0.4105
   2220 H1         24.8520  -16.8990   -5.9420 H     686  TIP675      0.2052
   2221 H2         23.8670  -17.5120   -4.9690 H     686  TIP675      0.2052
   2222 OH2       -15.3820  -21.3420  -18.1780 O.3   687  TIP676     -0.4105
   2223 H1        -16.1920  -21.0320  -17.7740 H     687  TIP676      0.2052
   2224 H2        -14.9060  -21.7670  -17.4640 H     687  TIP676      0.2052
   2225 OH2       -18.2290   10.8010  -11.9220 O.3   688  TIP677     -0.4105
   2226 H1        -18.5070   11.7050  -12.0710 H     688  TIP677      0.2052
   2227 H2        -18.6140   10.5680  -11.0770 H     688  TIP677      0.2052
   2228 OH2         9.1680  -21.5960    1.2550 O.3   689  TIP678     -0.4105
   2229 H1         10.0310  -21.1970    1.3610 H     689  TIP678      0.2052
   2230 H2          8.5530  -20.8730    1.3830 H     689  TIP678      0.2052
   2231 OH2        -3.1060  -18.6040    6.9070 O.3   690  TIP679     -0.4105
   2232 H1         -3.4170  -18.1680    6.1130 H     690  TIP679      0.2052
   2233 H2         -3.6430  -19.3930    6.9740 H     690  TIP679      0.2052
   2234 OH2        13.7590  -18.6750   -6.7470 O.3   691  TIP680     -0.4105
   2235 H1         14.1420  -19.3010   -6.1320 H     691  TIP680      0.2052
   2236 H2         14.0670  -18.9640   -7.6060 H     691  TIP680      0.2052
   2237 OH2        22.3350  -23.8060    6.1840 O.3   692  TIP681     -0.4105
   2238 H1         22.1000  -24.4690    6.8340 H     692  TIP681      0.2052
   2239 H2         21.8690  -24.0730    5.3920 H     692  TIP681      0.2052
   2240 OH2       -22.9450   13.0740    4.8700 O.3   693  TIP682     -0.4105
   2241 H1        -23.3870   13.6590    4.2550 H     693  TIP682      0.2052
   2242 H2        -22.1610   12.7840    4.4040 H     693  TIP682      0.2052
   2243 OH2        22.9360  -13.0340   -4.2090 O.3   694  TIP683     -0.4105
   2244 H1         22.4120  -13.0190   -3.4080 H     694  TIP683      0.2052
   2245 H2         22.4630  -13.6260   -4.7940 H     694  TIP683      0.2052
   2246 OH2        -0.7900   11.2730  -26.3530 O.3   695  TIP684     -0.4105
   2247 H1         -0.3770   12.0960  -26.0940 H     695  TIP684      0.2052
   2248 H2         -1.4830   11.1380  -25.7060 H     695  TIP684      0.2052
   2249 OH2         5.4950  -23.1090   13.8550 O.3   696  TIP685     -0.4105
   2250 H1          6.0400  -23.7480   14.3150 H     696  TIP685      0.2052
   2251 H2          5.1600  -23.5830   13.0940 H     696  TIP685      0.2052
   2252 OH2         5.7210    4.1570   19.8240 O.3   697  TIP686     -0.4105
   2253 H1          6.5920    4.2570   19.4400 H     697  TIP686      0.2052
   2254 H2          5.1700    4.7650   19.3310 H     697  TIP686      0.2052
   2255 OH2        -8.9490  -20.6350   17.5890 O.3   698  TIP687     -0.4105
   2256 H1         -9.4440  -20.2940   16.8450 H     698  TIP687      0.2052
   2257 H2         -8.7880  -21.5530   17.3700 H     698  TIP687      0.2052
   2258 OH2       -20.9600   -5.9990    4.3810 O.3   699  TIP688     -0.4105
   2259 H1        -21.5290   -6.5930    3.8920 H     699  TIP688      0.2052
   2260 H2        -21.5610   -5.4250    4.8540 H     699  TIP688      0.2052
   2261 OH2        16.2260    2.6550   11.0390 O.3   700  TIP689     -0.4105
   2262 H1         16.8760    3.2290   11.4430 H     700  TIP689      0.2052
   2263 H2         16.1880    2.9400   10.1270 H     700  TIP689      0.2052
   2264 OH2        -8.1660  -19.3580   24.0320 O.3   701  TIP690     -0.4105
   2265 H1         -8.1470  -19.9850   23.3090 H     701  TIP690      0.2052
   2266 H2         -7.7110  -18.5870   23.6930 H     701  TIP690      0.2052
   2267 OH2       -18.9820   25.9910    1.1190 O.3   702  TIP691     -0.4105
   2268 H1        -18.9650   25.1710    1.6120 H     702  TIP691      0.2052
   2269 H2        -18.1570   26.4220    1.3410 H     702  TIP691      0.2052
   2270 OH2         1.0840  -17.4960  -21.2440 O.3   703  TIP692     -0.4105
   2271 H1          1.5190  -16.7450  -21.6490 H     703  TIP692      0.2052
   2272 H2          0.9800  -17.2450  -20.3260 H     703  TIP692      0.2052
   2273 OH2        -7.0800  -18.7960    8.1050 O.3   704  TIP693     -0.4105
   2274 H1         -6.9680  -18.0160    7.5620 H     704  TIP693      0.2052
   2275 H2         -6.2040  -19.1790    8.1580 H     704  TIP693      0.2052
   2276 OH2        15.5100   12.7090   26.0990 O.3   705  TIP694     -0.4105
   2277 H1         16.0890   12.3900   26.7910 H     705  TIP694      0.2052
   2278 H2         15.0270   13.4290   26.5040 H     705  TIP694      0.2052
   2279 OH2       -30.1460  -10.3410   18.9440 O.3   706  TIP695     -0.4105
   2280 H1        -30.8180  -11.0220   18.9290 H     706  TIP695      0.2052
   2281 H2        -29.3190  -10.8180   18.8700 H     706  TIP695      0.2052
   2282 OH2        14.8310   10.5870   -1.6990 O.3   707  TIP696     -0.4105
   2283 H1         14.5520   10.8700   -2.5700 H     707  TIP696      0.2052
   2284 H2         15.7700   10.7750   -1.6760 H     707  TIP696      0.2052
   2285 OH2        13.4820  -17.4490   15.5030 O.3   708  TIP697     -0.4105
   2286 H1         13.0070  -16.7190   15.8990 H     708  TIP697      0.2052
   2287 H2         13.0260  -17.6130   14.6780 H     708  TIP697      0.2052
   2288 OH2       -24.4390   -8.5950   22.7010 O.3   709  TIP698     -0.4105
   2289 H1        -24.8030   -9.4150   22.3670 H     709  TIP698      0.2052
   2290 H2        -25.1340   -7.9510   22.5650 H     709  TIP698      0.2052
   2291 OH2         6.2300    2.9790  -10.4600 O.3   710  TIP699     -0.4105
   2292 H1          5.9880    2.1590  -10.8910 H     710  TIP699      0.2052
   2293 H2          7.1740    2.9050  -10.3180 H     710  TIP699      0.2052
   2294 OH2        23.0970    4.2230    8.2640 O.3   711  TIP700     -0.4105
   2295 H1         23.0020    5.1320    8.5490 H     711  TIP700      0.2052
   2296 H2         22.5690    3.7200    8.8840 H     711  TIP700      0.2052
   2297 OH2         4.9720   -5.7530  -22.6970 O.3   712  TIP701     -0.4105
   2298 H1          4.7670   -6.0170  -21.8000 H     712  TIP701      0.2052
   2299 H2          5.2400   -6.5630  -23.1300 H     712  TIP701      0.2052
   2300 OH2        19.1170   -3.9030   -8.5500 O.3   713  TIP702     -0.4105
   2301 H1         19.0540   -4.3710   -9.3830 H     713  TIP702      0.2052
   2302 H2         18.7470   -3.0390   -8.7320 H     713  TIP702      0.2052
   2303 OH2        18.0560  -25.6160    6.4060 O.3   714  TIP703     -0.4105
   2304 H1         17.5530  -25.1890    5.7120 H     714  TIP703      0.2052
   2305 H2         17.8140  -26.5400    6.3440 H     714  TIP703      0.2052
   2306 OH2        -9.8350    0.3170   -7.3690 O.3   715  TIP704     -0.4105
   2307 H1        -10.4390    1.0400   -7.2010 H     715  TIP704      0.2052
   2308 H2         -9.3000    0.6170   -8.1040 H     715  TIP704      0.2052
   2309 OH2        17.5870    2.2020   -7.1230 O.3   716  TIP705     -0.4105
   2310 H1         17.6350    2.0000   -8.0570 H     716  TIP705      0.2052
   2311 H2         17.8180    3.1290   -7.0650 H     716  TIP705      0.2052
   2312 OH2         7.5500   -8.6880   24.9700 O.3   717  TIP706     -0.4105
   2313 H1          7.5660   -8.9620   25.8870 H     717  TIP706      0.2052
   2314 H2          7.5970   -7.7330   25.0040 H     717  TIP706      0.2052
   2315 OH2        25.8920   11.3040  -11.0710 O.3   718  TIP707     -0.4105
   2316 H1         26.6730   11.7280  -11.4280 H     718  TIP707      0.2052
   2317 H2         25.3800   11.0580  -11.8410 H     718  TIP707      0.2052
   2318 OH2         2.4680   -7.7720   31.0710 O.3   719  TIP708     -0.4105
   2319 H1          2.3690   -7.9880   30.1440 H     719  TIP708      0.2052
   2320 H2          1.5750   -7.6200   31.3790 H     719  TIP708      0.2052
   2321 OH2       -20.3600  -13.7030   -8.8780 O.3   720  TIP709     -0.4105
   2322 H1        -20.4600  -12.8090   -8.5490 H     720  TIP709      0.2052
   2323 H2        -19.5310  -14.0040   -8.5060 H     720  TIP709      0.2052
   2324 OH2       -10.7040   28.2010    9.7330 O.3   721  TIP710     -0.4105
   2325 H1        -11.4740   28.1650   10.3000 H     721  TIP710      0.2052
   2326 H2         -9.9730   27.9650   10.3040 H     721  TIP710      0.2052
   2327 OH2        11.7740   -9.4770   21.7000 O.3   722  TIP711     -0.4105
   2328 H1         11.8610   -9.1540   20.8030 H     722  TIP711      0.2052
   2329 H2         11.1820   -8.8550   22.1230 H     722  TIP711      0.2052
   2330 OH2         8.3490  -17.0940   13.0540 O.3   723  TIP712     -0.4105
   2331 H1          8.8820  -16.3280   13.2670 H     723  TIP712      0.2052
   2332 H2          7.5310  -16.9580   13.5320 H     723  TIP712      0.2052
   2333 OH2       -10.2370   -2.7180   25.9810 O.3   724  TIP713     -0.4105
   2334 H1         -9.9840   -3.6390   25.9190 H     724  TIP713      0.2052
   2335 H2        -10.5190   -2.6070   26.8890 H     724  TIP713      0.2052
   2336 OH2         0.7680    1.0270   34.8770 O.3   725  TIP714     -0.4105
   2337 H1          0.7650    1.9260   35.2050 H     725  TIP714      0.2052
   2338 H2          0.5040    1.1050   33.9600 H     725  TIP714      0.2052
   2339 OH2        12.1830  -22.9170   -5.8210 O.3   726  TIP715     -0.4105
   2340 H1         11.8140  -23.5700   -6.4150 H     726  TIP715      0.2052
   2341 H2         11.4210  -22.4710   -5.4510 H     726  TIP715      0.2052
   2342 OH2       -20.1590   -2.0300    1.2620 O.3   727  TIP716     -0.4105
   2343 H1        -19.7720   -2.9060    1.2580 H     727  TIP716      0.2052
   2344 H2        -20.0920   -1.7350    0.3540 H     727  TIP716      0.2052
   2345 OH2        -7.9750  -24.6910    4.4740 O.3   728  TIP717     -0.4105
   2346 H1         -8.8040  -25.1200    4.6890 H     728  TIP717      0.2052
   2347 H2         -8.1590  -24.2010    3.6730 H     728  TIP717      0.2052
   2348 OH2        -9.6480  -14.4170  -18.8770 O.3   729  TIP718     -0.4105
   2349 H1         -9.1400  -13.7110  -18.4780 H     729  TIP718      0.2052
   2350 H2         -9.1110  -15.2000  -18.7510 H     729  TIP718      0.2052
   2351 OH2       -10.3140   27.5790  -14.5720 O.3   730  TIP719     -0.4105
   2352 H1        -10.9880   27.9140  -13.9810 H     730  TIP719      0.2052
   2353 H2        -10.6730   26.7560  -14.9040 H     730  TIP719      0.2052
   2354 OH2       -18.7430   -2.2550   23.2960 O.3   731  TIP720     -0.4105
   2355 H1        -18.4700   -1.7740   22.5140 H     731  TIP720      0.2052
   2356 H2        -19.1380   -3.0580   22.9580 H     731  TIP720      0.2052
   2357 OH2       -22.9480  -11.5960   15.2030 O.3   732  TIP721     -0.4105
   2358 H1        -22.5840  -12.4700   15.3450 H     732  TIP721      0.2052
   2359 H2        -22.2530  -11.0000   15.4800 H     732  TIP721      0.2052
   2360 OH2        12.3600   23.1800    4.5440 O.3   733  TIP722     -0.4105
   2361 H1         12.4110   24.1290    4.4280 H     733  TIP722      0.2052
   2362 H2         11.7310   23.0590    5.2560 H     733  TIP722      0.2052
   2363 OH2        17.9120  -14.3190   -3.0870 O.3   734  TIP723     -0.4105
   2364 H1         17.5390  -14.5840   -3.9280 H     734  TIP723      0.2052
   2365 H2         17.1960  -13.8730   -2.6360 H     734  TIP723      0.2052
   2366 OH2        -9.3630  -22.1400   -2.4540 O.3   735  TIP724     -0.4105
   2367 H1        -10.1820  -21.8280   -2.8380 H     735  TIP724      0.2052
   2368 H2         -9.6050  -22.9440   -1.9940 H     735  TIP724      0.2052
   2369 OH2       -20.5560   -1.7880  -12.0230 O.3   736  TIP725     -0.4105
   2370 H1        -20.0930   -1.1800  -12.6000 H     736  TIP725      0.2052
   2371 H2        -19.9790   -1.8870  -11.2660 H     736  TIP725      0.2052
   2372 OH2        -5.4520   23.2260  -12.7220 O.3   737  TIP726     -0.4105
   2373 H1         -4.5150   23.2730  -12.9100 H     737  TIP726      0.2052
   2374 H2         -5.8700   23.2370  -13.5830 H     737  TIP726      0.2052
   2375 OH2       -23.3990   21.6350    5.0790 O.3   738  TIP727     -0.4105
   2376 H1        -23.2620   21.9920    5.9560 H     738  TIP727      0.2052
   2377 H2        -23.2810   20.6900    5.1830 H     738  TIP727      0.2052
   2378 OH2        -6.9560  -10.3960  -15.9700 O.3   739  TIP728     -0.4105
   2379 H1         -6.3280  -10.3250  -15.2520 H     739  TIP728      0.2052
   2380 H2         -7.8120  -10.3200  -15.5490 H     739  TIP728      0.2052
   2381 OH2         4.6950  -24.8220   11.8970 O.3   740  TIP729     -0.4105
   2382 H1          4.9820  -25.7280   12.0120 H     740  TIP729      0.2052
   2383 H2          3.7400  -24.8650   11.9370 H     740  TIP729      0.2052
   2384 OH2       -12.5110   -1.5810   13.6170 O.3   741  TIP730     -0.4105
   2385 H1        -12.5200   -1.3900   12.6800 H     741  TIP730      0.2052
   2386 H2        -13.4290   -1.7320   13.8410 H     741  TIP730      0.2052
   2387 OH2       -10.8350   11.0880  -23.8150 O.3   742  TIP731     -0.4105
   2388 H1        -10.2040   11.0760  -23.0960 H     742  TIP731      0.2052
   2389 H2        -11.5990   11.5380  -23.4560 H     742  TIP731      0.2052
   2390 OH2       -19.0520   -2.4220   10.3020 O.3   743  TIP732     -0.4105
   2391 H1        -18.6600   -2.7760    9.5040 H     743  TIP732      0.2052
   2392 H2        -19.9310   -2.8000   10.3260 H     743  TIP732      0.2052
   2393 OH2         8.1890   -0.4390  -10.4910 O.3   744  TIP733     -0.4105
   2394 H1          7.5920    0.0450   -9.9210 H     744  TIP733      0.2052
   2395 H2          8.9660    0.1170  -10.5530 H     744  TIP733      0.2052
   2396 OH2        13.4320  -10.1310   16.8520 O.3   745  TIP734     -0.4105
   2397 H1         13.1340   -9.9530   15.9600 H     745  TIP734      0.2052
   2398 H2         14.1500   -9.5120   16.9930 H     745  TIP734      0.2052
   2399 OH2       -11.2610  -26.7980  -25.8060 O.3   746  TIP735     -0.4105
   2400 H1        -10.4330  -26.3790  -25.5720 H     746  TIP735      0.2052
   2401 H2        -11.8770  -26.5030  -25.1350 H     746  TIP735      0.2052
   2402 OH2        18.3980    7.5330    8.9510 O.3   747  TIP736     -0.4105
   2403 H1         18.8330    7.5270    9.8030 H     747  TIP736      0.2052
   2404 H2         18.3490    8.4590    8.7120 H     747  TIP736      0.2052
   2405 OH2         7.2670  -23.8230   24.1120 O.3   748  TIP737     -0.4105
   2406 H1          7.7350  -23.7130   23.2840 H     748  TIP737      0.2052
   2407 H2          7.8350  -24.3880   24.6350 H     748  TIP737      0.2052
   2408 OH2       -13.7330   -8.4280   -4.4520 O.3   749  TIP738     -0.4105
   2409 H1        -13.5080   -7.7980   -3.7670 H     749  TIP738      0.2052
   2410 H2        -14.4810   -8.9100   -4.0990 H     749  TIP738      0.2052
   2411 OH2       -20.8940   22.0660    4.0650 O.3   750  TIP739     -0.4105
   2412 H1        -21.5420   21.5810    4.5770 H     750  TIP739      0.2052
   2413 H2        -21.4130   22.6070    3.4710 H     750  TIP739      0.2052
   2414 OH2       -14.0410    3.9150   22.5580 O.3   751  TIP740     -0.4105
   2415 H1        -14.1420    4.4600   23.3390 H     751  TIP740      0.2052
   2416 H2        -14.7430    3.2670   22.6250 H     751  TIP740      0.2052
   2417 OH2       -11.6500   12.1760    5.8530 O.3   752  TIP741     -0.4105
   2418 H1        -11.1330   12.3890    6.6290 H     752  TIP741      0.2052
   2419 H2        -12.0170   11.3120    6.0380 H     752  TIP741      0.2052
   2420 OH2        -3.3800  -17.0080   15.1120 O.3   753  TIP742     -0.4105
   2421 H1         -3.4500  -16.5550   14.2720 H     753  TIP742      0.2052
   2422 H2         -3.9270  -16.4960   15.7080 H     753  TIP742      0.2052
   2423 OH2         5.7930   11.5040  -11.6390 O.3   754  TIP743     -0.4105
   2424 H1          6.2000   11.1410  -10.8530 H     754  TIP743      0.2052
   2425 H2          5.2960   10.7750  -12.0110 H     754  TIP743      0.2052
   2426 OH2        22.9540    5.4150   -4.2800 O.3   755  TIP744     -0.4105
   2427 H1         22.9670    5.0250   -3.4060 H     755  TIP744      0.2052
   2428 H2         23.8740    5.5910   -4.4790 H     755  TIP744      0.2052
   2429 OH2        -9.9200   -7.8380   12.9960 O.3   756  TIP745     -0.4105
   2430 H1         -9.0070   -7.5730   12.8850 H     756  TIP745      0.2052
   2431 H2        -10.3080   -7.1440   13.5300 H     756  TIP745      0.2052
   2432 OH2       -30.8170    9.6280    1.4340 O.3   757  TIP746     -0.4105
   2433 H1        -30.9860   10.2120    2.1730 H     757  TIP746      0.2052
   2434 H2        -30.8150    8.7510    1.8170 H     757  TIP746      0.2052
   2435 OH2         1.5270    6.5560  -12.2170 O.3   758  TIP747     -0.4105
   2436 H1          0.9930    6.8970  -11.5000 H     758  TIP747      0.2052
   2437 H2          1.6500    7.3030  -12.8020 H     758  TIP747      0.2052
   2438 OH2        -5.2340    2.0470  -22.6150 O.3   759  TIP748     -0.4105
   2439 H1         -5.2230    1.2700  -22.0570 H     759  TIP748      0.2052
   2440 H2         -4.4620    2.5460  -22.3470 H     759  TIP748      0.2052
   2441 OH2        10.7100  -25.6760    0.0790 O.3   760  TIP749     -0.4105
   2442 H1         10.3380  -25.0880    0.7360 H     760  TIP749      0.2052
   2443 H2         11.6490  -25.6790    0.2640 H     760  TIP749      0.2052
   2444 OH2        12.3120    0.1060   15.6220 O.3   761  TIP750     -0.4105
   2445 H1         12.6520    0.3300   16.4890 H     761  TIP750      0.2052
   2446 H2         12.3890    0.9160   15.1180 H     761  TIP750      0.2052
   2447 OH2        -0.9580   -7.1960   10.0580 O.3   762  TIP751     -0.4105
   2448 H1         -0.2570   -7.8270   10.2190 H     762  TIP751      0.2052
   2449 H2         -0.6830   -6.4070   10.5260 H     762  TIP751      0.2052
   2450 OH2        22.6700  -25.2250    2.1920 O.3   763  TIP752     -0.4105
   2451 H1         22.4220  -24.3480    2.4840 H     763  TIP752      0.2052
   2452 H2         23.6130  -25.2720    2.3470 H     763  TIP752      0.2052
   2453 OH2        18.4710   -6.3220  -14.8240 O.3   764  TIP753     -0.4105
   2454 H1         19.3180   -6.4860  -15.2370 H     764  TIP753      0.2052
   2455 H2         18.5130   -6.7950  -13.9930 H     764  TIP753      0.2052
   2456 OH2        -6.6950  -19.3880   18.9090 O.3   765  TIP754     -0.4105
   2457 H1         -7.4430  -19.8640   18.5470 H     765  TIP754      0.2052
   2458 H2         -6.1230  -19.2340   18.1570 H     765  TIP754      0.2052
   2459 OH2         7.1880   26.4200   14.6660 O.3   766  TIP755     -0.4105
   2460 H1          6.8600   25.7420   15.2560 H     766  TIP755      0.2052
   2461 H2          7.5600   25.9370   13.9280 H     766  TIP755      0.2052
   2462 OH2        -2.3960   18.2720   -6.5960 O.3   767  TIP756     -0.4105
   2463 H1         -2.9820   18.9030   -7.0130 H     767  TIP756      0.2052
   2464 H2         -2.8640   17.9940   -5.8080 H     767  TIP756      0.2052
   2465 OH2        11.6490   -3.1700   -5.1370 O.3   768  TIP757     -0.4105
   2466 H1         12.3140   -2.6310   -5.5650 H     768  TIP757      0.2052
   2467 H2         11.9950   -4.0620   -5.1860 H     768  TIP757      0.2052
   2468 OH2       -25.9560   12.4710    5.6210 O.3   769  TIP758     -0.4105
   2469 H1        -26.5720   12.3160    4.9050 H     769  TIP758      0.2052
   2470 H2        -25.9740   13.4180    5.7530 H     769  TIP758      0.2052
   2471 OH2       -29.3490   -9.4130   -6.5660 O.3   770  TIP759     -0.4105
   2472 H1        -29.6270   -9.8420   -7.3750 H     770  TIP759      0.2052
   2473 H2        -29.4320   -8.4770   -6.7500 H     770  TIP759      0.2052
   2474 OH2        -2.9870   14.2320  -31.2200 O.3   771  TIP760     -0.4105
   2475 H1         -3.0970   15.1800  -31.2990 H     771  TIP760      0.2052
   2476 H2         -2.3560   14.0060  -31.9030 H     771  TIP760      0.2052
   2477 OH2        -8.0950  -23.2470    2.2830 O.3   772  TIP761     -0.4105
   2478 H1         -8.1940  -23.3460    1.3360 H     772  TIP761      0.2052
   2479 H2         -7.9590  -22.3080    2.4130 H     772  TIP761      0.2052
   2480 OH2         0.2670    9.2370  -22.8160 O.3   773  TIP762     -0.4105
   2481 H1          0.1250    8.8530  -23.6820 H     773  TIP762      0.2052
   2482 H2          0.7600    8.5720  -22.3360 H     773  TIP762      0.2052
   2483 OH2        -8.6150   20.7800  -13.3530 O.3   774  TIP763     -0.4105
   2484 H1         -8.5880   21.6940  -13.0670 H     774  TIP763      0.2052
   2485 H2         -8.9630   20.3040  -12.5980 H     774  TIP763      0.2052
   2486 OH2        -2.9000   -6.2210   -8.3790 O.3   775  TIP764     -0.4105
   2487 H1         -3.0880   -6.9590   -7.8000 H     775  TIP764      0.2052
   2488 H2         -3.5100   -6.3270   -9.1090 H     775  TIP764      0.2052
   2489 OH2        15.3370   15.0630  -26.0680 O.3   776  TIP765     -0.4105
   2490 H1         15.0980   14.4000  -26.7160 H     776  TIP765      0.2052
   2491 H2         15.7140   14.5640  -25.3430 H     776  TIP765      0.2052
   2492 OH2        -2.9610  -15.0820   29.1730 O.3   777  TIP766     -0.4105
   2493 H1         -3.4390  -15.2630   29.9820 H     777  TIP766      0.2052
   2494 H2         -2.9560  -14.1270   29.1060 H     777  TIP766      0.2052
   2495 OH2         0.5030   13.0430   15.1810 O.3   778  TIP767     -0.4105
   2496 H1          1.3320   12.6010   15.0000 H     778  TIP767      0.2052
   2497 H2          0.0850   12.5040   15.8520 H     778  TIP767      0.2052
   2498 OH2        13.0630   10.1050  -16.5280 O.3   779  TIP768     -0.4105
   2499 H1         13.1490    9.6300  -17.3550 H     779  TIP768      0.2052
   2500 H2         12.1290   10.0640  -16.3250 H     779  TIP768      0.2052
   2501 OH2         6.4000   20.6700  -11.8280 O.3   780  TIP769     -0.4105
   2502 H1          5.6480   20.6900  -12.4200 H     780  TIP769      0.2052
   2503 H2          6.3000   21.4530  -11.2860 H     780  TIP769      0.2052
   2504 OH2        12.9810  -27.7690   11.7780 O.3   781  TIP770     -0.4105
   2505 H1         13.3650  -26.9450   12.0770 H     781  TIP770      0.2052
   2506 H2         13.6130  -28.4390   12.0410 H     781  TIP770      0.2052
   2507 OH2        -3.2750    4.2030   -6.4910 O.3   782  TIP771     -0.4105
   2508 H1         -2.5140    3.7270   -6.1580 H     782  TIP771      0.2052
   2509 H2         -3.2440    4.0720   -7.4390 H     782  TIP771      0.2052
   2510 OH2        16.8100    0.2250   11.2810 O.3   783  TIP772     -0.4105
   2511 H1         17.1840   -0.0670   10.4500 H     783  TIP772      0.2052
   2512 H2         16.6100    1.1510   11.1420 H     783  TIP772      0.2052
   2513 OH2         8.9530   14.7300   -5.9600 O.3   784  TIP773     -0.4105
   2514 H1          9.8720   14.7010   -5.6910 H     784  TIP773      0.2052
   2515 H2          8.7080   13.8110   -6.0730 H     784  TIP773      0.2052
   2516 OH2        -1.2840   15.2970  -22.2320 O.3   785  TIP774     -0.4105
   2517 H1         -1.9090   14.8580  -21.6540 H     785  TIP774      0.2052
   2518 H2         -0.5980   15.6160  -21.6460 H     785  TIP774      0.2052
   2519 OH2        -9.1220   25.0220    3.4100 O.3   786  TIP775     -0.4105
   2520 H1         -9.2820   25.6570    2.7120 H     786  TIP775      0.2052
   2521 H2         -9.6280   24.2510    3.1540 H     786  TIP775      0.2052
   2522 OH2        -4.3550    6.9540   -7.3330 O.3   787  TIP776     -0.4105
   2523 H1         -3.7840    6.2830   -6.9580 H     787  TIP776      0.2052
   2524 H2         -3.7980    7.4260   -7.9510 H     787  TIP776      0.2052
   2525 OH2         6.2380  -10.2710    5.2120 O.3   788  TIP777     -0.4105
   2526 H1          7.1780  -10.1080    5.1410 H     788  TIP777      0.2052
   2527 H2          6.1590  -10.9190    5.9130 H     788  TIP777      0.2052
   2528 OH2        -5.4130  -18.7090   38.5310 O.3   789  TIP778     -0.4105
   2529 H1         -5.6470  -18.3590   37.6720 H     789  TIP778      0.2052
   2530 H2         -5.8280  -18.1140   39.1550 H     789  TIP778      0.2052
   2531 OH2         8.2520    4.4560   23.4440 O.3   790  TIP779     -0.4105
   2532 H1          9.1100    4.7580   23.7410 H     790  TIP779      0.2052
   2533 H2          8.1080    3.6370   23.9180 H     790  TIP779      0.2052
   2534 OH2       -19.5130   15.4860   10.3240 O.3   791  TIP780     -0.4105
   2535 H1        -19.3040   15.2910   11.2380 H     791  TIP780      0.2052
   2536 H2        -20.4290   15.2280   10.2270 H     791  TIP780      0.2052
   2537 OH2       -17.5850    9.2820    4.9950 O.3   792  TIP781     -0.4105
   2538 H1        -17.7840    8.4680    4.5330 H     792  TIP781      0.2052
   2539 H2        -16.8360    9.6480    4.5250 H     792  TIP781      0.2052
   2540 OH2        22.3690   17.4570   -3.8910 O.3   793  TIP782     -0.4105
   2541 H1         22.7850   17.2520   -4.7280 H     793  TIP782      0.2052
   2542 H2         22.1070   16.6070   -3.5380 H     793  TIP782      0.2052
   2543 OH2         3.8380   13.3310   16.7810 O.3   794  TIP783     -0.4105
   2544 H1          3.6080   14.2570   16.7070 H     794  TIP783      0.2052
   2545 H2          3.1140   12.9420   17.2730 H     794  TIP783      0.2052
   2546 OH2       -18.2470  -18.4830    5.0550 O.3   795  TIP784     -0.4105
   2547 H1        -18.2650  -17.5280    5.1070 H     795  TIP784      0.2052
   2548 H2        -18.7500  -18.7750    5.8150 H     795  TIP784      0.2052
   2549 OH2       -11.4330  -21.2580  -25.7130 O.3   796  TIP785     -0.4105
   2550 H1        -11.9960  -22.0320  -25.7260 H     796  TIP785      0.2052
   2551 H2        -11.6310  -20.8310  -24.8800 H     796  TIP785      0.2052
   2552 OH2         2.7250  -23.8350   23.9560 O.3   797  TIP786     -0.4105
   2553 H1          2.7920  -23.1590   24.6300 H     797  TIP786      0.2052
   2554 H2          3.5910  -24.2420   23.9370 H     797  TIP786      0.2052
   2555 OH2         6.7140  -18.6160  -16.2510 O.3   798  TIP787     -0.4105
   2556 H1          5.8110  -18.8280  -16.4860 H     798  TIP787      0.2052
   2557 H2          7.2350  -19.3130  -16.6470 H     798  TIP787      0.2052
   2558 OH2        19.3130   17.6890   -2.3120 O.3   799  TIP788     -0.4105
   2559 H1         19.6200   17.2490   -3.1060 H     799  TIP788      0.2052
   2560 H2         18.6990   18.3510   -2.6280 H     799  TIP788      0.2052
   2561 OH2        26.0710  -18.9230   -2.9270 O.3   800  TIP789     -0.4105
   2562 H1         26.3610  -18.4820   -3.7260 H     800  TIP789      0.2052
   2563 H2         26.0570  -19.8520   -3.1580 H     800  TIP789      0.2052
   2564 OH2         1.1400    0.2700   -9.0870 O.3   801  TIP790     -0.4105
   2565 H1          0.2940    0.2130   -9.5290 H     801  TIP790      0.2052
   2566 H2          0.9810   -0.0950   -8.2160 H     801  TIP790      0.2052
   2567 OH2       -12.3540  -12.2620   -0.0190 O.3   802  TIP791     -0.4105
   2568 H1        -13.0500  -12.8650   -0.2810 H     802  TIP791      0.2052
   2569 H2        -12.0320  -11.8940   -0.8420 H     802  TIP791      0.2052
   2570 OH2       -14.4680    4.5890  -17.7670 O.3   803  TIP792     -0.4105
   2571 H1        -13.8040    4.6980  -18.4480 H     803  TIP792      0.2052
   2572 H2        -15.2590    4.3340  -18.2410 H     803  TIP792      0.2052
   2573 OH2         7.3080  -12.1470  -17.8180 O.3   804  TIP793     -0.4105
   2574 H1          6.3960  -12.4260  -17.8970 H     804  TIP793      0.2052
   2575 H2          7.2550  -11.2250  -17.5640 H     804  TIP793      0.2052
   2576 OH2        -3.8440   23.8820    7.9180 O.3   805  TIP794     -0.4105
   2577 H1         -3.4140   23.2190    7.3770 H     805  TIP794      0.2052
   2578 H2         -3.4710   23.7570    8.7910 H     805  TIP794      0.2052
   2579 OH2       -18.7240  -17.5580   -9.5820 O.3   806  TIP795     -0.4105
   2580 H1        -18.5440  -17.1960  -10.4490 H     806  TIP795      0.2052
   2581 H2        -18.6490  -16.8100   -8.9890 H     806  TIP795      0.2052
   2582 OH2       -29.8980   -0.2360    8.4460 O.3   807  TIP796     -0.4105
   2583 H1        -29.7620   -0.4480    7.5220 H     807  TIP796      0.2052
   2584 H2        -29.2470   -0.7630    8.9110 H     807  TIP796      0.2052
   2585 OH2        -9.2610   17.2070   -2.3590 O.3   808  TIP797     -0.4105
   2586 H1         -9.0470   18.0910   -2.0610 H     808  TIP797      0.2052
   2587 H2         -8.9000   16.6320   -1.6840 H     808  TIP797      0.2052
   2588 OH2        13.4880   11.5200   22.5620 O.3   809  TIP798     -0.4105
   2589 H1         13.8850   10.6550   22.6660 H     809  TIP798      0.2052
   2590 H2         13.4870   11.6720   21.6170 H     809  TIP798      0.2052
   2591 OH2       -16.0680   -7.1870   21.9480 O.3   810  TIP799     -0.4105
   2592 H1        -16.0360   -7.5770   22.8220 H     810  TIP799      0.2052
   2593 H2        -15.1830   -7.3000   21.6020 H     810  TIP799      0.2052
   2594 OH2        -0.1980   15.9090   -9.5910 O.3   811  TIP800     -0.4105
   2595 H1         -0.2160   15.0170   -9.9370 H     811  TIP800      0.2052
   2596 H2         -0.7110   15.8640   -8.7840 H     811  TIP800      0.2052
   2597 OH2        20.6370  -26.5760    6.8960 O.3   812  TIP801     -0.4105
   2598 H1         20.7670  -26.5640    5.9480 H     812  TIP801      0.2052
   2599 H2         19.7880  -26.1540    7.0270 H     812  TIP801      0.2052
   2600 OH2       -12.8130   -8.1900  -14.8700 O.3   813  TIP802     -0.4105
   2601 H1        -12.1580   -8.4290  -15.5260 H     813  TIP802      0.2052
   2602 H2        -12.5760   -8.7030  -14.0970 H     813  TIP802      0.2052
   2603 OH2        13.9920    8.8270   22.2280 O.3   814  TIP803     -0.4105
   2604 H1         14.5630    8.3960   22.8640 H     814  TIP803      0.2052
   2605 H2         14.2010    8.4070   21.3940 H     814  TIP803      0.2052
   2606 OH2        -0.4950    5.9840   24.9220 O.3   815  TIP804     -0.4105
   2607 H1         -0.8380    5.9210   25.8130 H     815  TIP804      0.2052
   2608 H2         -0.6810    6.8840   24.6560 H     815  TIP804      0.2052
   2609 OH2         2.7680  -18.8260   28.0680 O.3   816  TIP805     -0.4105
   2610 H1          2.7920  -18.5740   27.1450 H     816  TIP805      0.2052
   2611 H2          1.9610  -18.4360   28.4030 H     816  TIP805      0.2052
   2612 OH2       -22.6990   -4.1460    5.3580 O.3   817  TIP806     -0.4105
   2613 H1        -22.0350   -3.5520    5.0090 H     817  TIP806      0.2052
   2614 H2        -23.5270   -3.8030    5.0220 H     817  TIP806      0.2052
   2615 OH2         2.7420  -13.5000   33.7370 O.3   818  TIP807     -0.4105
   2616 H1          3.2270  -13.5360   32.9130 H     818  TIP807      0.2052
   2617 H2          2.8020  -12.5850   34.0110 H     818  TIP807      0.2052
   2618 OH2        13.8060   17.0880   -1.6370 O.3   819  TIP808     -0.4105
   2619 H1         13.2010   17.5850   -1.0870 H     819  TIP808      0.2052
   2620 H2         13.2640   16.7570   -2.3530 H     819  TIP808      0.2052
   2621 OH2        12.5690   -2.7040  -12.6770 O.3   820  TIP809     -0.4105
   2622 H1         12.9020   -2.0190  -13.2570 H     820  TIP809      0.2052
   2623 H2         11.6590   -2.8260  -12.9460 H     820  TIP809      0.2052
   2624 OH2       -16.7160  -12.5050   24.9140 O.3   821  TIP810     -0.4105
   2625 H1        -17.1900  -13.3370   24.9170 H     821  TIP810      0.2052
   2626 H2        -16.9440  -12.1020   24.0760 H     821  TIP810      0.2052
   2627 OH2         5.5330  -15.8410   -0.1230 O.3   822  TIP811     -0.4105
   2628 H1          4.9160  -16.1680   -0.7790 H     822  TIP811      0.2052
   2629 H2          5.2170  -14.9630    0.0880 H     822  TIP811      0.2052
   2630 OH2       -11.5440   20.3040   12.4170 O.3   823  TIP812     -0.4105
   2631 H1        -10.9580   19.5510   12.3360 H     823  TIP812      0.2052
   2632 H2        -10.9660   21.0350   12.6350 H     823  TIP812      0.2052
   2633 OH2        -9.4430   13.6490   -2.4070 O.3   824  TIP813     -0.4105
   2634 H1         -9.1710   13.3840   -1.5280 H     824  TIP813      0.2052
   2635 H2        -10.0230   12.9460   -2.7000 H     824  TIP813      0.2052
   2636 OH2        -4.6460   20.2150   20.8980 O.3   825  TIP814     -0.4105
   2637 H1         -4.2540   21.0580   20.6690 H     825  TIP814      0.2052
   2638 H2         -5.4460   20.4430   21.3720 H     825  TIP814      0.2052
   2639 OH2       -17.6980   -1.2870   12.6580 O.3   826  TIP815     -0.4105
   2640 H1        -17.6710   -1.9690   11.9880 H     826  TIP815      0.2052
   2641 H2        -18.3450   -0.6590   12.3360 H     826  TIP815      0.2052
   2642 OH2        -7.9190   -5.4770   19.0340 O.3   827  TIP816     -0.4105
   2643 H1         -8.8230   -5.5340   18.7270 H     827  TIP816      0.2052
   2644 H2         -7.4160   -5.2400   18.2540 H     827  TIP816      0.2052
   2645 OH2       -39.4010   -5.0460    6.7290 O.3   828  TIP817     -0.4105
   2646 H1        -38.8410   -5.3410    7.4460 H     828  TIP817      0.2052
   2647 H2        -39.3830   -4.0910    6.7880 H     828  TIP817      0.2052
   2648 OH2        -0.7640   19.9250   19.6330 O.3   829  TIP818     -0.4105
   2649 H1         -1.6530   20.1370   19.3480 H     829  TIP818      0.2052
   2650 H2         -0.5360   19.1360   19.1420 H     829  TIP818      0.2052
   2651 OH2        -4.9240  -16.9970  -20.3920 O.3   830  TIP819     -0.4105
   2652 H1         -3.9720  -17.0650  -20.4560 H     830  TIP819      0.2052
   2653 H2         -5.0960  -16.9070  -19.4540 H     830  TIP819      0.2052
   2654 OH2        -2.6250   10.9420    4.1470 O.3   831  TIP820     -0.4105
   2655 H1         -2.6480   10.0850    3.7220 H     831  TIP820      0.2052
   2656 H2         -2.4550   11.5590    3.4350 H     831  TIP820      0.2052
   2657 OH2         8.7090  -24.0300   13.3050 O.3   832  TIP821     -0.4105
   2658 H1          9.4530  -23.4550   13.4820 H     832  TIP821      0.2052
   2659 H2          8.6080  -24.5460   14.1050 H     832  TIP821      0.2052
   2660 OH2        12.4880   -0.6490   23.0580 O.3   833  TIP822     -0.4105
   2661 H1         12.1570   -1.2780   22.4170 H     833  TIP822      0.2052
   2662 H2         12.2530   -1.0240   23.9060 H     833  TIP822      0.2052
   2663 OH2        -1.5300  -10.0450   12.5670 O.3   834  TIP823     -0.4105
   2664 H1         -1.7960  -10.0980   11.6490 H     834  TIP823      0.2052
   2665 H2         -1.1840   -9.1580   12.6650 H     834  TIP823      0.2052
   2666 OH2        -8.9500    9.7650  -19.6190 O.3   835  TIP824     -0.4105
   2667 H1         -9.6180    9.1910  -19.9930 H     835  TIP824      0.2052
   2668 H2         -8.8220    9.4360  -18.7290 H     835  TIP824      0.2052
   2669 OH2        -1.0110    1.5150   26.3750 O.3   836  TIP825     -0.4105
   2670 H1         -1.4050    1.4470   25.5050 H     836  TIP825      0.2052
   2671 H2         -1.1610    0.6580   26.7730 H     836  TIP825      0.2052
   2672 OH2        22.0390  -16.9460   -1.6290 O.3   837  TIP826     -0.4105
   2673 H1         22.7290  -16.3800   -1.9750 H     837  TIP826      0.2052
   2674 H2         21.2300  -16.5890   -1.9960 H     837  TIP826      0.2052
   2675 OH2        17.2440   20.3010   22.4400 O.3   838  TIP827     -0.4105
   2676 H1         17.1360   21.1250   21.9640 H     838  TIP827      0.2052
   2677 H2         17.5600   20.5640   23.3050 H     838  TIP827      0.2052
   2678 OH2        10.9930  -12.4890   13.3770 O.3   839  TIP828     -0.4105
   2679 H1         10.1100  -12.3680   13.0280 H     839  TIP828      0.2052
   2680 H2         10.8630  -12.6140   14.3180 H     839  TIP828      0.2052
   2681 OH2        -6.6150  -16.6670    6.4760 O.3   840  TIP829     -0.4105
   2682 H1         -6.3430  -17.2320    5.7530 H     840  TIP829      0.2052
   2683 H2         -6.9800  -15.8910    6.0510 H     840  TIP829      0.2052
   2684 OH2        27.4980    8.7390   -3.5470 O.3   841  TIP830     -0.4105
   2685 H1         27.3840    9.5020   -2.9800 H     841  TIP830      0.2052
   2686 H2         27.0610    8.9790   -4.3640 H     841  TIP830      0.2052
   2687 OH2        18.4070   -9.4630   -9.6840 O.3   842  TIP831     -0.4105
   2688 H1         17.6410   -9.7050   -9.1640 H     842  TIP831      0.2052
   2689 H2         18.2180   -9.8000  -10.5600 H     842  TIP831      0.2052
   2690 OH2       -10.1740   23.2680  -12.1440 O.3   843  TIP832     -0.4105
   2691 H1        -10.6340   22.9390  -11.3710 H     843  TIP832      0.2052
   2692 H2         -9.2590   23.3330  -11.8680 H     843  TIP832      0.2052
   2693 OH2         3.8040  -23.9960   28.4000 O.3   844  TIP833     -0.4105
   2694 H1          4.2470  -24.2950   27.6060 H     844  TIP833      0.2052
   2695 H2          3.2910  -23.2380   28.1190 H     844  TIP833      0.2052
   2696 OH2        -7.4450   25.3570  -22.8650 O.3   845  TIP834     -0.4105
   2697 H1         -8.1150   25.2380  -22.1910 H     845  TIP834      0.2052
   2698 H2         -7.6030   26.2380  -23.2060 H     845  TIP834      0.2052
   2699 OH2        21.7020   14.2720  -10.6920 O.3   846  TIP835     -0.4105
   2700 H1         21.8300   13.6610   -9.9660 H     846  TIP835      0.2052
   2701 H2         21.2010   14.9940  -10.3130 H     846  TIP835      0.2052
   2702 OH2       -11.1380   12.0220   -9.7650 O.3   847  TIP836     -0.4105
   2703 H1        -10.4860   11.9280   -9.0710 H     847  TIP836      0.2052
   2704 H2        -11.9370   11.6450   -9.3960 H     847  TIP836      0.2052
   2705 OH2        17.5440  -12.4720   -9.6350 O.3   848  TIP837     -0.4105
   2706 H1         16.8790  -11.8320   -9.8870 H     848  TIP837      0.2052
   2707 H2         17.6330  -13.0410  -10.3990 H     848  TIP837      0.2052
   2708 OH2       -19.3930  -10.5380   24.1850 O.3   849  TIP838     -0.4105
   2709 H1        -18.9500  -10.7380   23.3600 H     849  TIP838      0.2052
   2710 H2        -19.8060   -9.6870   24.0360 H     849  TIP838      0.2052
   2711 OH2        13.3180   -9.9200  -11.1020 O.3   850  TIP839     -0.4105
   2712 H1         13.7720   -9.2610  -11.6270 H     850  TIP839      0.2052
   2713 H2         12.5190   -9.4830  -10.8060 H     850  TIP839      0.2052
   2714 OH2        -0.0400  -19.0920   10.3590 O.3   851  TIP840     -0.4105
   2715 H1          0.8060  -18.8720   10.7490 H     851  TIP840      0.2052
   2716 H2         -0.1230  -18.4980    9.6120 H     851  TIP840      0.2052
   2717 OH2         2.9190  -12.6010    6.7850 O.3   852  TIP841     -0.4105
   2718 H1          3.5610  -12.9780    6.1830 H     852  TIP841      0.2052
   2719 H2          2.1070  -13.0710    6.5960 H     852  TIP841      0.2052
   2720 OH2        -7.4600   -1.9200   17.0270 O.3   853  TIP842     -0.4105
   2721 H1         -7.8180   -1.1550   16.5760 H     853  TIP842      0.2052
   2722 H2         -6.5130   -1.7870   17.0120 H     853  TIP842      0.2052
   2723 OH2        -0.9750   -9.9240   29.4160 O.3   854  TIP843     -0.4105
   2724 H1         -1.3190   -9.9630   28.5230 H     854  TIP843      0.2052
   2725 H2         -0.7730  -10.8330   29.6360 H     854  TIP843      0.2052
   2726 OH2         7.2740  -10.9190   23.2930 O.3   855  TIP844     -0.4105
   2727 H1          7.3900  -10.2180   23.9350 H     855  TIP844      0.2052
   2728 H2          7.3350  -10.4800   22.4450 H     855  TIP844      0.2052
   2729 OH2       -12.6230   24.0210  -15.9390 O.3   856  TIP845     -0.4105
   2730 H1        -11.9700   24.4180  -16.5150 H     856  TIP845      0.2052
   2731 H2        -12.1710   23.2770  -15.5400 H     856  TIP845      0.2052
   2732 OH2        22.4050   -7.2010   -4.8440 O.3   857  TIP846     -0.4105
   2733 H1         21.5990   -7.5360   -4.4510 H     857  TIP846      0.2052
   2734 H2         22.7040   -7.9060   -5.4170 H     857  TIP846      0.2052
   2735 OH2       -11.6280   31.5090    8.8520 O.3   858  TIP847     -0.4105
   2736 H1        -10.9080   31.8980    8.3550 H     858  TIP847      0.2052
   2737 H2        -11.1990   31.0160    9.5510 H     858  TIP847      0.2052
   2738 OH2         7.1190  -18.2220   23.5800 O.3   859  TIP848     -0.4105
   2739 H1          7.4290  -18.9930   23.1050 H     859  TIP848      0.2052
   2740 H2          7.6000  -18.2410   24.4070 H     859  TIP848      0.2052
   2741 OH2         1.3790   -3.7610   33.2400 O.3   860  TIP849     -0.4105
   2742 H1          0.8840   -2.9880   32.9710 H     860  TIP849      0.2052
   2743 H2          0.7380   -4.4710   33.2350 H     860  TIP849      0.2052
   2744 OH2        -2.6800   22.1730  -28.6670 O.3   861  TIP850     -0.4105
   2745 H1         -2.8280   21.2320  -28.5730 H     861  TIP850      0.2052
   2746 H2         -3.0240   22.3850  -29.5350 H     861  TIP850      0.2052
   2747 OH2         8.5550    7.9070    3.2500 O.3   862  TIP851     -0.4105
   2748 H1          9.4790    8.1210    3.1210 H     862  TIP851      0.2052
   2749 H2          8.0890    8.7110    3.0190 H     862  TIP851      0.2052
   2750 OH2        18.3110    6.7750   -5.7950 O.3   863  TIP852     -0.4105
   2751 H1         19.2230    7.0500   -5.7020 H     863  TIP852      0.2052
   2752 H2         17.8060    7.5830   -5.7060 H     863  TIP852      0.2052
   2753 OH2         3.2000   -7.3250  -14.2280 O.3   864  TIP853     -0.4105
   2754 H1          2.9380   -6.8810  -15.0350 H     864  TIP853      0.2052
   2755 H2          2.5970   -8.0650  -14.1550 H     864  TIP853      0.2052
   2756 OH2        21.9050   11.6260   17.7410 O.3   865  TIP854     -0.4105
   2757 H1         22.4780   12.2890   17.3570 H     865  TIP854      0.2052
   2758 H2         21.2330   12.1270   18.2030 H     865  TIP854      0.2052
   2759 OH2        11.1430   -9.0620   -9.6020 O.3   866  TIP855     -0.4105
   2760 H1         11.0430   -8.5030   -8.8330 H     866  TIP855      0.2052
   2761 H2         10.4430   -9.7100   -9.5210 H     866  TIP855      0.2052
   2762 OH2        17.6830   -6.5220   11.5830 O.3   867  TIP856     -0.4105
   2763 H1         17.6030   -6.9890   10.7510 H     867  TIP856      0.2052
   2764 H2         18.3110   -5.8230   11.4060 H     867  TIP856      0.2052
   2765 OH2       -17.1590  -15.3950  -22.5560 O.3   868  TIP857     -0.4105
   2766 H1        -17.8460  -15.9300  -22.9520 H     868  TIP857      0.2052
   2767 H2        -17.1290  -15.6810  -21.6430 H     868  TIP857      0.2052
   2768 OH2        -7.7740  -14.7360   13.0970 O.3   869  TIP858     -0.4105
   2769 H1         -7.6590  -14.3780   13.9770 H     869  TIP858      0.2052
   2770 H2         -8.3010  -15.5240   13.2250 H     869  TIP858      0.2052
   2771 OH2         7.7450   12.7740   12.3310 O.3   870  TIP859     -0.4105
   2772 H1          7.2740   13.4190   11.8050 H     870  TIP859      0.2052
   2773 H2          8.6670   12.9190   12.1210 H     870  TIP859      0.2052
   2774 OH2        -5.7880  -17.6920   10.6000 O.3   871  TIP860     -0.4105
   2775 H1         -6.0460  -17.6870   11.5220 H     871  TIP860      0.2052
   2776 H2         -5.9780  -18.5830   10.3030 H     871  TIP860      0.2052
   2777 OH2       -20.2570    6.6040  -13.3240 O.3   872  TIP861     -0.4105
   2778 H1        -19.5420    7.2390  -13.3070 H     872  TIP861      0.2052
   2779 H2        -21.0470    7.1280  -13.1880 H     872  TIP861      0.2052
   2780 OH2        38.5100   11.2220   -2.7860 O.3   873  TIP862     -0.4105
   2781 H1         38.2830   10.8950   -1.9150 H     873  TIP862      0.2052
   2782 H2         37.7110   11.1050   -3.3010 H     873  TIP862      0.2052
   2783 OH2        -6.2570   26.5180    4.5530 O.3   874  TIP863     -0.4105
   2784 H1         -5.5750   26.8470    3.9670 H     874  TIP863      0.2052
   2785 H2         -7.0320   26.4360    3.9970 H     874  TIP863      0.2052
   2786 OH2         5.9850   16.7220  -31.8760 O.3   875  TIP864     -0.4105
   2787 H1          6.7010   16.0860  -31.8700 H     875  TIP864      0.2052
   2788 H2          5.6600   16.7090  -32.7770 H     875  TIP864      0.2052
   2789 OH2        35.2380    4.4360   -5.5470 O.3   876  TIP865     -0.4105
   2790 H1         34.3020    4.2660   -5.4330 H     876  TIP865      0.2052
   2791 H2         35.6600    3.9300   -4.8520 H     876  TIP865      0.2052
   2792 OH2       -18.1810  -12.5360   -6.0730 O.3   877  TIP866     -0.4105
   2793 H1        -18.8410  -11.8430   -6.0940 H     877  TIP866      0.2052
   2794 H2        -18.0040  -12.7260   -6.9940 H     877  TIP866      0.2052
   2795 OH2        -1.0500   11.8480  -22.4810 O.3   878  TIP867     -0.4105
   2796 H1         -0.4070   12.2650  -21.9080 H     878  TIP867      0.2052
   2797 H2         -0.5450   11.2090  -22.9840 H     878  TIP867      0.2052
   2798 OH2        10.8420   25.2310   23.9420 O.3   879  TIP868     -0.4105
   2799 H1         10.5220   24.8770   24.7710 H     879  TIP868      0.2052
   2800 H2         10.0540   25.3420   23.4090 H     879  TIP868      0.2052
   2801 OH2        33.8360   11.4040   -6.6890 O.3   880  TIP869     -0.4105
   2802 H1         33.6580   11.9070   -7.4830 H     880  TIP869      0.2052
   2803 H2         34.6910   11.0020   -6.8460 H     880  TIP869      0.2052
   2804 OH2       -21.2870    5.2800   -6.6800 O.3   881  TIP870     -0.4105
   2805 H1        -20.4870    5.1110   -6.1820 H     881  TIP870      0.2052
   2806 H2        -21.1360    4.8580   -7.5260 H     881  TIP870      0.2052
   2807 OH2         9.0470    2.8500   -9.8890 O.3   882  TIP871     -0.4105
   2808 H1          9.2930    2.3560  -10.6710 H     882  TIP871      0.2052
   2809 H2          9.3430    3.7430  -10.0660 H     882  TIP871      0.2052
   2810 OH2       -10.5910    8.6020  -21.7860 O.3   883  TIP872     -0.4105
   2811 H1        -10.8910    8.0870  -22.5360 H     883  TIP872      0.2052
   2812 H2        -11.3640    8.6840  -21.2270 H     883  TIP872      0.2052
   2813 OH2        23.6990    9.1320  -16.0390 O.3   884  TIP873     -0.4105
   2814 H1         23.7190    8.5150  -16.7700 H     884  TIP873      0.2052
   2815 H2         23.3410    8.6280  -15.3090 H     884  TIP873      0.2052
   2816 OH2        -9.6090   15.4560  -10.9280 O.3   885  TIP874     -0.4105
   2817 H1        -10.1300   16.2570  -10.9670 H     885  TIP874      0.2052
   2818 H2         -8.7140   15.7580  -10.7730 H     885  TIP874      0.2052
   2819 OH2        11.7360   15.8960   28.0070 O.3   886  TIP875     -0.4105
   2820 H1         11.9420   16.8300   28.0510 H     886  TIP875      0.2052
   2821 H2         11.6810   15.6190   28.9210 H     886  TIP875      0.2052
   2822 OH2        -7.7210   -6.0930   13.6260 O.3   887  TIP876     -0.4105
   2823 H1         -6.9380   -5.8380   14.1140 H     887  TIP876      0.2052
   2824 H2         -7.9510   -5.3140   13.1180 H     887  TIP876      0.2052
   2825 OH2        10.5510   13.8230  -10.7310 O.3   888  TIP877     -0.4105
   2826 H1         10.1800   13.6410  -11.5940 H     888  TIP877      0.2052
   2827 H2         10.6930   14.7700  -10.7260 H     888  TIP877      0.2052
   2828 OH2        -7.2830    7.6060  -27.0730 O.3   889  TIP878     -0.4105
   2829 H1         -7.9460    7.0160  -26.7150 H     889  TIP878      0.2052
   2830 H2         -6.7400    7.0470  -27.6290 H     889  TIP878      0.2052
   2831 OH2         3.4580  -24.5870   -1.6130 O.3   890  TIP879     -0.4105
   2832 H1          2.9530  -23.7800   -1.7050 H     890  TIP879      0.2052
   2833 H2          4.3380  -24.3560   -1.9120 H     890  TIP879      0.2052
   2834 OH2        11.5340  -25.9100   -7.2250 O.3   891  TIP880     -0.4105
   2835 H1         12.3070  -26.3680   -6.8950 H     891  TIP880      0.2052
   2836 H2         10.9470  -25.8580   -6.4720 H     891  TIP880      0.2052
   2837 OH2       -11.8950   -3.3120   28.2990 O.3   892  TIP881     -0.4105
   2838 H1        -11.4170   -3.1440   29.1110 H     892  TIP881      0.2052
   2839 H2        -12.1530   -4.2320   28.3590 H     892  TIP881      0.2052
   2840 OH2        -7.4720    1.2190   13.7650 O.3   893  TIP882     -0.4105
   2841 H1         -8.1490    1.7160   14.2250 H     893  TIP882      0.2052
   2842 H2         -6.9720    1.8800   13.2870 H     893  TIP882      0.2052
   2843 OH2        -4.2430  -11.4490  -13.3630 O.3   894  TIP883     -0.4105
   2844 H1         -4.1080  -10.6910  -12.7940 H     894  TIP883      0.2052
   2845 H2         -4.0500  -11.1250  -14.2430 H     894  TIP883      0.2052
   2846 OH2         8.5390   -9.4200   -2.7610 O.3   895  TIP884     -0.4105
   2847 H1          7.8860   -9.1660   -2.1090 H     895  TIP884      0.2052
   2848 H2          8.0420   -9.5250   -3.5720 H     895  TIP884      0.2052
   2849 OH2        -8.6420   12.8900  -16.6440 O.3   896  TIP885     -0.4105
   2850 H1         -8.7890   12.0600  -16.1890 H     896  TIP885      0.2052
   2851 H2         -9.5200   13.2400  -16.7930 H     896  TIP885      0.2052
   2852 OH2       -25.4540   -2.9760    4.6260 O.3   897  TIP886     -0.4105
   2853 H1        -25.7850   -3.8660    4.5030 H     897  TIP886      0.2052
   2854 H2        -25.8410   -2.4750    3.9080 H     897  TIP886      0.2052
   2855 OH2        -9.5200   15.2230   13.9460 O.3   898  TIP887     -0.4105
   2856 H1         -8.9250   14.7120   14.4940 H     898  TIP887      0.2052
   2857 H2         -9.6610   14.6790   13.1710 H     898  TIP887      0.2052
   2858 OH2        -0.2590  -30.1010  -12.9010 O.3   899  TIP888     -0.4105
   2859 H1          0.3920  -30.5050  -12.3280 H     899  TIP888      0.2052
   2860 H2         -0.6020  -29.3650  -12.3940 H     899  TIP888      0.2052
   2861 OH2        -5.2820   14.0840    9.7010 O.3   900  TIP889     -0.4105
   2862 H1         -4.6570   14.8030    9.6070 H     900  TIP889      0.2052
   2863 H2         -4.7470   13.3320    9.9520 H     900  TIP889      0.2052
   2864 OH2       -23.8920   -8.3010   -9.7910 O.3   901  TIP890     -0.4105
   2865 H1        -22.9730   -8.0760   -9.6460 H     901  TIP890      0.2052
   2866 H2        -24.1970   -7.6600  -10.4340 H     901  TIP890      0.2052
   2867 OH2       -16.3450   -5.4410    5.2850 O.3   902  TIP891     -0.4105
   2868 H1        -15.9810   -4.5640    5.1680 H     902  TIP891      0.2052
   2869 H2        -17.1550   -5.4340    4.7760 H     902  TIP891      0.2052
   2870 OH2        -7.9950   -5.3260  -33.8870 O.3   903  TIP892     -0.4105
   2871 H1         -8.2600   -6.1960  -34.1860 H     903  TIP892      0.2052
   2872 H2         -7.2010   -5.1330  -34.3850 H     903  TIP892      0.2052
   2873 OH2       -19.6460   20.3310    2.0170 O.3   904  TIP893     -0.4105
   2874 H1        -20.2530   19.5980    2.1230 H     904  TIP893      0.2052
   2875 H2        -19.3560   20.2720    1.1070 H     904  TIP893      0.2052
   2876 OH2        -0.2320   -6.0350   -3.2350 O.3   905  TIP894     -0.4105
   2877 H1          0.5150   -6.5510   -2.9300 H     905  TIP894      0.2052
   2878 H2          0.1540   -5.3650   -3.7990 H     905  TIP894      0.2052
   2879 OH2        10.1190    3.5260   21.2320 O.3   906  TIP895     -0.4105
   2880 H1          9.2880    3.2070   21.5850 H     906  TIP895      0.2052
   2881 H2         10.7260    2.7950   21.3500 H     906  TIP895      0.2052
   2882 OH2        17.2270   11.4360   20.6490 O.3   907  TIP896     -0.4105
   2883 H1         16.5770   12.0890   20.3880 H     907  TIP896      0.2052
   2884 H2         17.4450   11.6630   21.5530 H     907  TIP896      0.2052
   2885 OH2         8.6730    5.0630    3.5860 O.3   908  TIP897     -0.4105
   2886 H1          9.2120    4.7490    2.8610 H     908  TIP897      0.2052
   2887 H2          8.4030    5.9430    3.3210 H     908  TIP897      0.2052
   2888 OH2       -11.2790   -9.9180   11.6420 O.3   909  TIP898     -0.4105
   2889 H1        -11.9450   -9.2930   11.3550 H     909  TIP898      0.2052
   2890 H2        -10.6640   -9.3940   12.1560 H     909  TIP898      0.2052
   2891 OH2         8.9560   13.5360    4.2020 O.3   910  TIP899     -0.4105
   2892 H1          9.8450   13.8490    4.0340 H     910  TIP899      0.2052
   2893 H2          9.0650   12.8440    4.8540 H     910  TIP899      0.2052
   2894 OH2         9.8420  -14.5330   19.3050 O.3   911  TIP900     -0.4105
   2895 H1         10.6360  -14.0530   19.0680 H     911  TIP900      0.2052
   2896 H2          9.4830  -14.0500   20.0500 H     911  TIP900      0.2052
   2897 OH2        20.4920  -11.0500    5.4960 O.3   912  TIP901     -0.4105
   2898 H1         20.8530  -10.7540    6.3320 H     912  TIP901      0.2052
   2899 H2         20.7640  -10.3820    4.8670 H     912  TIP901      0.2052
   2900 OH2        -8.6000  -26.2100  -11.3470 O.3   913  TIP902     -0.4105
   2901 H1         -8.7660  -26.5280  -12.2350 H     913  TIP902      0.2052
   2902 H2         -8.8490  -26.9410  -10.7810 H     913  TIP902      0.2052
   2903 OH2        20.9620   -1.8210   -5.6050 O.3   914  TIP903     -0.4105
   2904 H1         20.3640   -1.1930   -6.0100 H     914  TIP903      0.2052
   2905 H2         21.8350   -1.5000   -5.8280 H     914  TIP903      0.2052
   2906 OH2         6.3170    1.5180  -24.0670 O.3   915  TIP904     -0.4105
   2907 H1          6.3950    0.7950  -23.4460 H     915  TIP904      0.2052
   2908 H2          5.3750    1.6100  -24.2110 H     915  TIP904      0.2052
   2909 OH2        -7.2860  -15.2550   17.8450 O.3   916  TIP905     -0.4105
   2910 H1         -6.8270  -14.6980   18.4730 H     916  TIP905      0.2052
   2911 H2         -7.6140  -15.9860   18.3680 H     916  TIP905      0.2052
   2912 OH2       -20.7220   -0.3840   15.2280 O.3   917  TIP906     -0.4105
   2913 H1        -19.8350   -0.6970   15.4060 H     917  TIP906      0.2052
   2914 H2        -21.2470   -0.7280   15.9510 H     917  TIP906      0.2052
   2915 OH2        20.7990   13.0990   -5.8190 O.3   918  TIP907     -0.4105
   2916 H1         20.2270   12.5870   -5.2460 H     918  TIP907      0.2052
   2917 H2         20.5660   12.8180   -6.7040 H     918  TIP907      0.2052
   2918 OH2        -5.6400   -3.0850    5.3080 O.3   919  TIP908     -0.4105
   2919 H1         -5.9740   -2.1880    5.2880 H     919  TIP908      0.2052
   2920 H2         -5.0080   -3.1220    4.5910 H     919  TIP908      0.2052
   2921 OH2        -0.1250    0.2630  -18.4080 O.3   920  TIP909     -0.4105
   2922 H1         -0.7500    0.8590  -18.8210 H     920  TIP909      0.2052
   2923 H2          0.0400   -0.4080  -19.0690 H     920  TIP909      0.2052
   2924 OH2        30.2060    5.7170   -1.7010 O.3   921  TIP910     -0.4105
   2925 H1         29.7330    6.5170   -1.4740 H     921  TIP910      0.2052
   2926 H2         29.8590    5.0550   -1.1040 H     921  TIP910      0.2052
   2927 OH2        30.7830    3.7010   -7.5650 O.3   922  TIP911     -0.4105
   2928 H1         30.6930    4.2460   -8.3470 H     922  TIP911      0.2052
   2929 H2         29.9890    3.8730   -7.0590 H     922  TIP911      0.2052
   2930 OH2        -2.0020  -21.8050   -7.2360 O.3   923  TIP912     -0.4105
   2931 H1         -1.1670  -21.4300   -6.9540 H     923  TIP912      0.2052
   2932 H2         -2.6640  -21.2280   -6.8560 H     923  TIP912      0.2052
   2933 OH2       -10.2590    8.8940    5.8130 O.3   924  TIP913     -0.4105
   2934 H1         -9.7490    8.7300    5.0190 H     924  TIP913      0.2052
   2935 H2        -11.1080    9.2000    5.4930 H     924  TIP913      0.2052
   2936 OH2        13.9860  -10.9020   -2.1880 O.3   925  TIP914     -0.4105
   2937 H1         13.0720  -11.1770   -2.1230 H     925  TIP914      0.2052
   2938 H2         14.0500  -10.4830   -3.0460 H     925  TIP914      0.2052
   2939 OH2       -38.5860   -9.9380    9.1870 O.3   926  TIP915     -0.4105
   2940 H1        -39.0270   -9.6220    9.9760 H     926  TIP915      0.2052
   2941 H2        -37.9370  -10.5630    9.5090 H     926  TIP915      0.2052
   2942 OH2         4.8720   -6.8120   22.3260 O.3   927  TIP916     -0.4105
   2943 H1          4.4120   -5.9760   22.4050 H     927  TIP916      0.2052
   2944 H2          5.7740   -6.6140   22.5770 H     927  TIP916      0.2052
   2945 OH2        30.0410   13.0740   -9.9210 O.3   928  TIP917     -0.4105
   2946 H1         29.5440   12.3700   -9.5050 H     928  TIP917      0.2052
   2947 H2         30.3380   12.7010  -10.7500 H     928  TIP917      0.2052
   2948 OH2        12.7590   18.0410   12.9120 O.3   929  TIP918     -0.4105
   2949 H1         13.3990   18.2040   13.6040 H     929  TIP918      0.2052
   2950 H2         12.4580   18.9120   12.6530 H     929  TIP918      0.2052
   2951 OH2       -16.8480   31.9160    2.5140 O.3   930  TIP919     -0.4105
   2952 H1        -17.6030   31.4980    2.1000 H     930  TIP919      0.2052
   2953 H2        -17.2250   32.6120    3.0530 H     930  TIP919      0.2052
   2954 OH2        14.3950   17.8460    2.8820 O.3   931  TIP920     -0.4105
   2955 H1         15.0790   18.5120    2.8290 H     931  TIP920      0.2052
   2956 H2         14.6210   17.2140    2.2000 H     931  TIP920      0.2052
   2957 OH2         1.6630   -3.0170  -25.4140 O.3   932  TIP921     -0.4105
   2958 H1          2.4470   -3.1110  -24.8730 H     932  TIP921      0.2052
   2959 H2          1.5430   -2.0710  -25.5000 H     932  TIP921      0.2052
   2960 OH2       -24.3070  -11.0450  -10.2430 O.3   933  TIP922     -0.4105
   2961 H1        -24.1510  -10.1050  -10.3420 H     933  TIP922      0.2052
   2962 H2        -25.2510  -11.1180  -10.1060 H     933  TIP922      0.2052
   2963 OH2       -26.3510   31.4020    1.7170 O.3   934  TIP923     -0.4105
   2964 H1        -25.7840   31.7210    1.0150 H     934  TIP923      0.2052
   2965 H2        -26.2390   32.0370    2.4240 H     934  TIP923      0.2052
   2966 OH2       -22.4110  -15.1410   -1.4260 O.3   935  TIP924     -0.4105
   2967 H1        -21.9080  -15.6660   -0.8030 H     935  TIP924      0.2052
   2968 H2        -22.8400  -15.7840   -1.9900 H     935  TIP924      0.2052
   2969 OH2       -26.0500    6.7990    9.6350 O.3   936  TIP925     -0.4105
   2970 H1        -25.6050    7.4430    9.0840 H     936  TIP925      0.2052
   2971 H2        -26.7380    6.4400    9.0750 H     936  TIP925      0.2052
   2972 OH2        -1.1660   -2.0980   23.7160 O.3   937  TIP926     -0.4105
   2973 H1         -0.9470   -1.2800   24.1630 H     937  TIP926      0.2052
   2974 H2         -1.7820   -1.8390   23.0310 H     937  TIP926      0.2052
   2975 OH2         6.0600    1.8210   -3.1700 O.3   938  TIP927     -0.4105
   2976 H1          5.5580    1.7250   -2.3610 H     938  TIP927      0.2052
   2977 H2          5.6630    2.5720   -3.6100 H     938  TIP927      0.2052
   2978 OH2        27.6320  -15.4730    2.6580 O.3   939  TIP928     -0.4105
   2979 H1         27.2530  -16.3300    2.4610 H     939  TIP928      0.2052
   2980 H2         27.9110  -15.5370    3.5710 H     939  TIP928      0.2052
   2981 OH2        -6.7780   10.9670   -7.7410 O.3   940  TIP929     -0.4105
   2982 H1         -6.6170   11.8900   -7.9370 H     940  TIP929      0.2052
   2983 H2         -6.9690   10.9500   -6.8030 H     940  TIP929      0.2052
   2984 OH2       -16.2970   -1.5640  -14.8890 O.3   941  TIP930     -0.4105
   2985 H1        -16.0820   -2.4820  -14.7200 H     941  TIP930      0.2052
   2986 H2        -15.6130   -1.0700  -14.4370 H     941  TIP930      0.2052
   2987 OH2       -31.7100    0.2680    4.1600 O.3   942  TIP931     -0.4105
   2988 H1        -32.2220   -0.1170    3.4480 H     942  TIP931      0.2052
   2989 H2        -32.2650    0.9680    4.5030 H     942  TIP931      0.2052
   2990 OH2        24.9230    4.2670    4.7400 O.3   943  TIP932     -0.4105
   2991 H1         24.9440    4.6630    5.6110 H     943  TIP932      0.2052
   2992 H2         24.2970    4.8010    4.2490 H     943  TIP932      0.2052
   2993 OH2        17.8710   12.6560    5.6190 O.3   944  TIP933     -0.4105
   2994 H1         18.0990   13.1820    4.8530 H     944  TIP933      0.2052
   2995 H2         18.5390   12.8750    6.2680 H     944  TIP933      0.2052
   2996 OH2         4.9790   -1.4470    9.6590 O.3   945  TIP934     -0.4105
   2997 H1          4.1280   -1.1130    9.3760 H     945  TIP934      0.2052
   2998 H2          5.6150   -0.8540    9.2570 H     945  TIP934      0.2052
   2999 OH2       -16.4670  -10.0500   -4.0180 O.3   946  TIP935     -0.4105
   3000 H1        -16.4890  -10.0270   -4.9750 H     946  TIP935      0.2052
   3001 H2        -17.3760  -10.2010   -3.7600 H     946  TIP935      0.2052
   3002 OH2       -22.0390   17.2540   -6.7500 O.3   947  TIP936     -0.4105
   3003 H1        -21.6780   18.1270   -6.9090 H     947  TIP936      0.2052
   3004 H2        -22.1130   17.1950   -5.7980 H     947  TIP936      0.2052
   3005 OH2         5.2630   16.1480   26.9740 O.3   948  TIP937     -0.4105
   3006 H1          5.5670   15.2700   27.2020 H     948  TIP937      0.2052
   3007 H2          4.4880   16.0010   26.4320 H     948  TIP937      0.2052
   3008 OH2       -17.5120  -10.0350  -20.6110 O.3   949  TIP938     -0.4105
   3009 H1        -17.8010  -10.3640  -19.7590 H     949  TIP938      0.2052
   3010 H2        -17.8030  -10.6990  -21.2360 H     949  TIP938      0.2052
   3011 OH2         1.5590  -10.1660   -5.6610 O.3   950  TIP939     -0.4105
   3012 H1          1.2030  -10.9740   -5.2930 H     950  TIP939      0.2052
   3013 H2          2.3590  -10.4390   -6.1100 H     950  TIP939      0.2052
   3014 OH2         8.4530    0.6810   19.4520 O.3   951  TIP940     -0.4105
   3015 H1          8.5340    1.3580   18.7810 H     951  TIP940      0.2052
   3016 H2          8.4020    1.1650   20.2760 H     951  TIP940      0.2052
   3017 OH2       -22.4760   29.8780    5.2060 O.3   952  TIP941     -0.4105
   3018 H1        -21.5890   30.0160    4.8750 H     952  TIP941      0.2052
   3019 H2        -22.3990   29.1260    5.7930 H     952  TIP941      0.2052
   3020 OH2        20.3240   18.2880   16.3670 O.3   953  TIP942     -0.4105
   3021 H1         19.5220   17.9000   16.7180 H     953  TIP942      0.2052
   3022 H2         20.7330   17.5810   15.8680 H     953  TIP942      0.2052
   3023 OH2         7.6660  -22.3530    3.7360 O.3   954  TIP943     -0.4105
   3024 H1          8.3570  -21.6940    3.6720 H     954  TIP943      0.2052
   3025 H2          7.0400  -22.1120    3.0530 H     954  TIP943      0.2052
   3026 OH2         8.6380    7.0820   -4.0760 O.3   955  TIP944     -0.4105
   3027 H1          9.4790    6.7130   -4.3440 H     955  TIP944      0.2052
   3028 H2          8.7890    7.4000   -3.1860 H     955  TIP944      0.2052
   3029 OH2         0.3500    1.5160    0.0650 O.3   956  TIP945     -0.4105
   3030 H1          0.2890    1.9370    0.9230 H     956  TIP945      0.2052
   3031 H2          1.1280    1.9030   -0.3370 H     956  TIP945      0.2052
   3032 OH2       -32.7380   -6.1420   14.5310 O.3   957  TIP946     -0.4105
   3033 H1        -32.0340   -6.6330   14.1050 H     957  TIP946      0.2052
   3034 H2        -32.3090   -5.6880   15.2560 H     957  TIP946      0.2052
   3035 OH2        12.2930   -6.7270   -8.2120 O.3   958  TIP947     -0.4105
   3036 H1         11.6380   -6.0590   -8.4160 H     958  TIP947      0.2052
   3037 H2         12.4930   -6.5930   -7.2860 H     958  TIP947      0.2052
   3038 OH2         4.8790   19.0500  -23.5060 O.3   959  TIP948     -0.4105
   3039 H1          4.1820   19.3800  -22.9390 H     959  TIP948      0.2052
   3040 H2          5.0380   19.7590  -24.1300 H     959  TIP948      0.2052
   3041 OH2        19.1090    4.9900   -7.7220 O.3   960  TIP949     -0.4105
   3042 H1         18.8560    5.6580   -7.0850 H     960  TIP949      0.2052
   3043 H2         18.7670    5.3120   -8.5560 H     960  TIP949      0.2052
   3044 OH2       -36.7360  -10.8890    4.9100 O.3   961  TIP950     -0.4105
   3045 H1        -36.3130  -10.3500    5.5780 H     961  TIP950      0.2052
   3046 H2        -36.0280  -11.4230    4.5490 H     961  TIP950      0.2052
   3047 OH2        -9.3880    7.1960    2.9420 O.3   962  TIP951     -0.4105
   3048 H1         -9.2150    6.4460    3.5110 H     962  TIP951      0.2052
   3049 H2        -10.3410    7.2150    2.8540 H     962  TIP951      0.2052
   3050 OH2        -4.6080   14.4940  -17.6940 O.3   963  TIP952     -0.4105
   3051 H1         -5.0040   13.7840  -17.1890 H     963  TIP952      0.2052
   3052 H2         -4.7520   15.2760  -17.1620 H     963  TIP952      0.2052
   3053 OH2         2.3400   12.4540   10.1180 O.3   964  TIP953     -0.4105
   3054 H1          2.8980   11.6960    9.9410 H     964  TIP953      0.2052
   3055 H2          2.9440   13.1290   10.4270 H     964  TIP953      0.2052
   3056 OH2        -6.8160   -2.4260   26.9370 O.3   965  TIP954     -0.4105
   3057 H1         -7.0420   -2.1670   26.0430 H     965  TIP954      0.2052
   3058 H2         -6.2370   -3.1810   26.8280 H     965  TIP954      0.2052
   3059 OH2         7.3220   -2.0150   19.0230 O.3   966  TIP955     -0.4105
   3060 H1          8.0560   -2.6030   19.2020 H     966  TIP955      0.2052
   3061 H2          7.6630   -1.1410   19.2120 H     966  TIP955      0.2052
   3062 OH2         8.6930    8.2020  -26.3930 O.3   967  TIP956     -0.4105
   3063 H1          9.3980    8.8020  -26.1480 H     967  TIP956      0.2052
   3064 H2          8.5900    7.6300  -25.6330 H     967  TIP956      0.2052
   3065 OH2        -5.8480    5.4940  -28.3120 O.3   968  TIP957     -0.4105
   3066 H1         -6.1430    4.7550  -27.7800 H     968  TIP957      0.2052
   3067 H2         -5.2760    5.1010  -28.9720 H     968  TIP957      0.2052
   3068 OH2       -18.8730  -14.6580   17.2190 O.3   969  TIP958     -0.4105
   3069 H1        -18.8220  -15.5950   17.4100 H     969  TIP958      0.2052
   3070 H2        -18.0080  -14.4350   16.8750 H     969  TIP958      0.2052
   3071 OH2        -6.3540    3.2580   -9.0710 O.3   970  TIP959     -0.4105
   3072 H1         -5.9380    2.5900   -8.5260 H     970  TIP959      0.2052
   3073 H2         -5.6250    3.7520   -9.4460 H     970  TIP959      0.2052
   3074 OH2        20.7170   -8.3140    5.0790 O.3   971  TIP960     -0.4105
   3075 H1         19.7740   -8.3790    5.2340 H     971  TIP960      0.2052
   3076 H2         21.0550   -7.8540    5.8480 H     971  TIP960      0.2052
   3077 OH2        12.5610   -5.9130   23.8300 O.3   972  TIP961     -0.4105
   3078 H1         12.0940   -5.0780   23.8640 H     972  TIP961      0.2052
   3079 H2         13.1580   -5.8840   24.5770 H     972  TIP961      0.2052
   3080 OH2        -0.1310   11.0720   27.0240 O.3   973  TIP962     -0.4105
   3081 H1          0.6760   10.9980   26.5140 H     973  TIP962      0.2052
   3082 H2         -0.4990   10.1880   27.0190 H     973  TIP962      0.2052
   3083 OH2         3.5110   -5.3810   32.1180 O.3   974  TIP963     -0.4105
   3084 H1          3.1120   -6.0390   31.5490 H     974  TIP963      0.2052
   3085 H2          2.7690   -4.9180   32.5070 H     974  TIP963      0.2052
   3086 OH2        -4.6920  -20.5700  -14.6070 O.3   975  TIP964     -0.4105
   3087 H1         -5.6040  -20.3070  -14.4790 H     975  TIP964      0.2052
   3088 H2         -4.1840  -19.7910  -14.3810 H     975  TIP964      0.2052
   3089 OH2         6.4540   27.4230   24.9210 O.3   976  TIP965     -0.4105
   3090 H1          7.1330   26.7850   25.1390 H     976  TIP965      0.2052
   3091 H2          6.0220   27.0600   24.1480 H     976  TIP965      0.2052
   3092 OH2       -10.1430  -17.5990  -22.5560 O.3   977  TIP966     -0.4105
   3093 H1         -9.2800  -17.7320  -22.9480 H     977  TIP966      0.2052
   3094 H2        -10.0860  -16.7410  -22.1350 H     977  TIP966      0.2052
   3095 OH2        16.5080    9.5950   17.1120 O.3   978  TIP967     -0.4105
   3096 H1         16.4350   10.5490   17.1320 H     978  TIP967      0.2052
   3097 H2         16.8860    9.3660   17.9610 H     978  TIP967      0.2052
   3098 OH2        -3.6630   15.3850  -25.0210 O.3   979  TIP968     -0.4105
   3099 H1         -3.2940   14.6390  -25.4950 H     979  TIP968      0.2052
   3100 H2         -4.1050   14.9950  -24.2670 H     979  TIP968      0.2052
   3101 OH2         0.1820   18.3110   -7.7970 O.3   980  TIP969     -0.4105
   3102 H1         -0.5960   18.6330   -7.3430 H     980  TIP969      0.2052
   3103 H2          0.5710   17.6820   -7.1880 H     980  TIP969      0.2052
   3104 OH2       -21.4530   -2.1320   -7.9570 O.3   981  TIP970     -0.4105
   3105 H1        -20.5430   -1.8790   -8.1080 H     981  TIP970      0.2052
   3106 H2        -21.9300   -1.3030   -7.9200 H     981  TIP970      0.2052
   3107 OH2       -30.7410  -15.3820    0.1830 O.3   982  TIP971     -0.4105
   3108 H1        -30.1920  -15.6890    0.9040 H     982  TIP971      0.2052
   3109 H2        -31.3910  -16.0750    0.0640 H     982  TIP971      0.2052
   3110 OH2       -13.2380   -3.7600   -4.1670 O.3   983  TIP972     -0.4105
   3111 H1        -12.6230   -3.8810   -3.4450 H     983  TIP972      0.2052
   3112 H2        -14.0830   -3.6130   -3.7410 H     983  TIP972      0.2052
   3113 OH2       -24.8400  -11.8160    4.3370 O.3   984  TIP973     -0.4105
   3114 H1        -24.5280  -11.6000    5.2160 H     984  TIP973      0.2052
   3115 H2        -24.0440  -11.8970    3.8120 H     984  TIP973      0.2052
   3116 OH2        20.6430   13.4340    0.8360 O.3   985  TIP974     -0.4105
   3117 H1         20.1990   12.6510    1.1610 H     985  TIP974      0.2052
   3118 H2         19.9810   13.8840    0.3110 H     985  TIP974      0.2052
   3119 OH2       -17.4730  -21.1170  -13.2480 O.3   986  TIP975     -0.4105
   3120 H1        -17.6990  -22.0460  -13.2030 H     986  TIP975      0.2052
   3121 H2        -18.3150  -20.6700  -13.3410 H     986  TIP975      0.2052
   3122 OH2         5.1390  -24.1370   16.4450 O.3   987  TIP976     -0.4105
   3123 H1          5.4620  -25.0270   16.2990 H     987  TIP976      0.2052
   3124 H2          4.2290  -24.1610   16.1520 H     987  TIP976      0.2052
   3125 OH2        -5.1710   -6.9750  -10.3390 O.3   988  TIP977     -0.4105
   3126 H1         -5.9090   -6.3670  -10.3960 H     988  TIP977      0.2052
   3127 H2         -5.4170   -7.7060  -10.9050 H     988  TIP977      0.2052
   3128 OH2        24.9990    3.2470   -1.5810 O.3   989  TIP978     -0.4105
   3129 H1         25.5160    4.0060   -1.8520 H     989  TIP978      0.2052
   3130 H2         25.3280    2.5270   -2.1190 H     989  TIP978      0.2052
   3131 OH2         9.5690   20.1000   15.6780 O.3   990  TIP979     -0.4105
   3132 H1          8.9670   20.7540   16.0330 H     990  TIP979      0.2052
   3133 H2         10.0260   20.5540   14.9700 H     990  TIP979      0.2052
   3134 OH2        18.7030   -5.7200   -1.3810 O.3   991  TIP980     -0.4105
   3135 H1         19.1290   -6.5180   -1.0700 H     991  TIP980      0.2052
   3136 H2         18.8140   -5.7430   -2.3320 H     991  TIP980      0.2052
   3137 OH2         3.6260   -9.3500   22.8210 O.3   992  TIP981     -0.4105
   3138 H1          4.0880   -8.5430   22.5930 H     992  TIP981      0.2052
   3139 H2          2.7230   -9.0740   22.9780 H     992  TIP981      0.2052
   3140 OH2       -20.7310   19.7950   -2.7620 O.3   993  TIP982     -0.4105
   3141 H1        -19.8870   19.8390   -3.2110 H     993  TIP982      0.2052
   3142 H2        -21.3470   19.5080   -3.4370 H     993  TIP982      0.2052
   3143 OH2        27.7910    3.9370  -12.3400 O.3   994  TIP983     -0.4105
   3144 H1         28.6720    4.2580  -12.5310 H     994  TIP983      0.2052
   3145 H2         27.9070    2.9990  -12.1840 H     994  TIP983      0.2052
   3146 OH2        16.8820    6.8420   19.9750 O.3   995  TIP984     -0.4105
   3147 H1         15.9580    7.0630   19.8530 H     995  TIP984      0.2052
   3148 H2         17.3470    7.4090   19.3600 H     995  TIP984      0.2052
   3149 OH2         0.7540   25.6910   -4.6270 O.3   996  TIP985     -0.4105
   3150 H1         -0.0590   26.1420   -4.8560 H     996  TIP985      0.2052
   3151 H2          1.1590   26.2490   -3.9630 H     996  TIP985      0.2052
   3152 OH2         0.1090    2.0900    6.2500 O.3   997  TIP986     -0.4105
   3153 H1          1.0310    2.2210    6.4720 H     997  TIP986      0.2052
   3154 H2         -0.3660    2.6640    6.8510 H     997  TIP986      0.2052
   3155 OH2       -12.1120  -10.1310  -29.1510 O.3   998  TIP987     -0.4105
   3156 H1        -12.8830  -10.6130  -29.4530 H     998  TIP987      0.2052
   3157 H2        -11.7290   -9.7660  -29.9490 H     998  TIP987      0.2052
   3158 OH2        -8.9510    3.5360  -24.7010 O.3   999  TIP988     -0.4105
   3159 H1         -8.8940    4.4610  -24.9400 H     999  TIP988      0.2052
   3160 H2         -8.0470    3.2240  -24.7330 H     999  TIP988      0.2052
   3161 OH2       -29.8950  -14.7140   -8.6450 O.3   1000  TIP989     -0.4105
   3162 H1        -29.3960  -15.0700   -9.3810 H     1000  TIP989      0.2052
   3163 H2        -29.7290  -15.3240   -7.9260 H     1000  TIP989      0.2052
   3164 OH2        13.7980   13.8890   10.8880 O.3   1001  TIP990     -0.4105
   3165 H1         13.5350   14.6040   11.4670 H     1001  TIP990      0.2052
   3166 H2         13.7400   13.1040   11.4340 H     1001  TIP990      0.2052
   3167 OH2        15.4320    7.8550  -13.4130 O.3   1002  TIP991     -0.4105
   3168 H1         16.3250    8.1310  -13.2060 H     1002  TIP991      0.2052
   3169 H2         14.8800    8.3540  -12.8110 H     1002  TIP991      0.2052
   3170 OH2         8.8450   -2.2000   25.4720 O.3   1003  TIP992     -0.4105
   3171 H1          9.6450   -2.0920   25.9870 H     1003  TIP992      0.2052
   3172 H2          8.2270   -1.5780   25.8540 H     1003  TIP992      0.2052
   3173 OH2       -13.1180  -15.4020   21.8320 O.3   1004  TIP993     -0.4105
   3174 H1        -12.2200  -15.1370   22.0330 H     1004  TIP993      0.2052
   3175 H2        -13.3800  -15.9440   22.5760 H     1004  TIP993      0.2052
   3176 OH2       -22.7970  -12.7360    2.4640 O.3   1005  TIP994     -0.4105
   3177 H1        -21.9660  -13.1310    2.1990 H     1005  TIP994      0.2052
   3178 H2        -23.3210  -13.4700    2.7840 H     1005  TIP994      0.2052
   3179 OH2       -18.5700    8.5920  -13.5080 O.3   1006  TIP995     -0.4105
   3180 H1        -18.3120    9.1310  -14.2550 H     1006  TIP995      0.2052
   3181 H2        -18.6580    9.2120  -12.7840 H     1006  TIP995      0.2052
   3182 OH2        32.3630   11.7810  -11.3690 O.3   1007  TIP996     -0.4105
   3183 H1         32.2960   11.0760  -10.7240 H     1007  TIP996      0.2052
   3184 H2         32.6910   11.3520  -12.1590 H     1007  TIP996      0.2052
   3185 OH2         4.4470  -20.9400   22.3350 O.3   1008  TIP997     -0.4105
   3186 H1          4.8640  -21.2290   21.5230 H     1008  TIP997      0.2052
   3187 H2          3.5180  -21.1330   22.2090 H     1008  TIP997      0.2052
   3188 OH2        -7.1420   -8.7340  -13.7480 O.3   1009  TIP998     -0.4105
   3189 H1         -7.6350   -8.9910  -12.9690 H     1009  TIP998      0.2052
   3190 H2         -6.2650   -8.5340  -13.4220 H     1009  TIP998      0.2052
   3191 OH2         3.6930    5.4520   15.3480 O.3   1010  TIP999     -0.4105
   3192 H1          4.4990    5.9670   15.3840 H     1010  TIP999      0.2052
   3193 H2          3.8160    4.7670   16.0050 H     1010  TIP999      0.2052
   3194 OH2         3.5900  -27.1040   -0.9450 O.3   1011  TIP1000    -0.4105
   3195 H1          3.6540  -26.1700   -1.1460 H     1011  TIP1000     0.2052
   3196 H2          3.1280  -27.4790   -1.6950 H     1011  TIP1000     0.2052
   3197 OH2         5.1050  -21.6530   -0.0610 O.3   1012  TIP1001    -0.4105
   3198 H1          5.5090  -21.6700   -0.9290 H     1012  TIP1001     0.2052
   3199 H2          4.9190  -20.7280    0.0990 H     1012  TIP1001     0.2052
   3200 OH2         2.9790    7.0690   26.9710 O.3   1013  TIP1002    -0.4105
   3201 H1          3.6320    6.6940   27.5620 H     1013  TIP1002     0.2052
   3202 H2          3.3770    7.8810   26.6580 H     1013  TIP1002     0.2052
   3203 OH2       -24.5100    8.1320    2.6770 O.3   1014  TIP1003    -0.4105
   3204 H1        -24.8940    7.6910    3.4350 H     1014  TIP1003     0.2052
   3205 H2        -25.2080    8.1310    2.0210 H     1014  TIP1003     0.2052
   3206 OH2        13.1560    1.8410    2.8200 O.3   1015  TIP1004    -0.4105
   3207 H1         13.7090    1.1110    3.0980 H     1015  TIP1004     0.2052
   3208 H2         13.4350    2.0260    1.9240 H     1015  TIP1004     0.2052
   3209 OH2       -16.4850  -16.9270   19.8830 O.3   1016  TIP1005    -0.4105
   3210 H1        -15.7990  -17.3970   20.3570 H     1016  TIP1005     0.2052
   3211 H2        -16.4340  -16.0300   20.2130 H     1016  TIP1005     0.2052
   3212 OH2       -30.9520   -3.8710    2.3280 O.3   1017  TIP1006    -0.4105
   3213 H1        -30.0010   -3.7650    2.3210 H     1017  TIP1006     0.2052
   3214 H2        -31.0940   -4.7460    2.6890 H     1017  TIP1006     0.2052
   3215 OH2         0.1300  -12.6550   23.4690 O.3   1018  TIP1007    -0.4105
   3216 H1          0.4030  -12.2230   24.2790 H     1018  TIP1007     0.2052
   3217 H2          0.8050  -12.4220   22.8330 H     1018  TIP1007     0.2052
   3218 OH2       -35.2400  -12.3090    3.0570 O.3   1019  TIP1008    -0.4105
   3219 H1        -34.5630  -12.7330    2.5300 H     1019  TIP1008     0.2052
   3220 H2        -35.8950  -12.9930    3.2010 H     1019  TIP1008     0.2052
   3221 OH2        19.6810    0.2000   -6.8690 O.3   1020  TIP1009    -0.4105
   3222 H1         19.0900    0.9520   -6.8260 H     1020  TIP1009     0.2052
   3223 H2         20.1620    0.3210   -7.6870 H     1020  TIP1009     0.2052
   3224 OH2       -12.9460   18.3380    8.4400 O.3   1021  TIP1010    -0.4105
   3225 H1        -13.8940   18.4090    8.3290 H     1021  TIP1010     0.2052
   3226 H2        -12.8260   18.1640    9.3740 H     1021  TIP1010     0.2052
   3227 OH2        -0.0500   -0.0040   -3.4110 O.3   1022  TIP1011    -0.4105
   3228 H1         -0.3750   -0.8750   -3.6380 H     1022  TIP1011     0.2052
   3229 H2         -0.6230    0.2880   -2.7020 H     1022  TIP1011     0.2052
   3230 OH2        21.1530   20.6310   13.9690 O.3   1023  TIP1012    -0.4105
   3231 H1         21.4790   21.4180   14.4060 H     1023  TIP1012     0.2052
   3232 H2         21.5290   19.9060   14.4680 H     1023  TIP1012     0.2052
   3233 OH2        15.1360  -20.2170   -5.1050 O.3   1024  TIP1013    -0.4105
   3234 H1         15.9760  -20.6150   -4.8760 H     1024  TIP1013     0.2052
   3235 H2         14.7710  -19.9280   -4.2680 H     1024  TIP1013     0.2052
   3236 OH2        -2.7730  -22.8590   21.4730 O.3   1025  TIP1014    -0.4105
   3237 H1         -3.6340  -23.2000   21.7160 H     1025  TIP1014     0.2052
   3238 H2         -2.3960  -22.5530   22.2980 H     1025  TIP1014     0.2052
   3239 OH2        18.8290   17.2780   -5.2230 O.3   1026  TIP1015    -0.4105
   3240 H1         18.1910   17.9030   -5.5690 H     1026  TIP1015     0.2052
   3241 H2         19.5410   17.2840   -5.8630 H     1026  TIP1015     0.2052
   3242 OH2        12.5160    2.5970  -17.1010 O.3   1027  TIP1016    -0.4105
   3243 H1         11.8300    2.5700  -16.4330 H     1027  TIP1016     0.2052
   3244 H2         12.8230    3.5030  -17.0930 H     1027  TIP1016     0.2052
   3245 OH2        -1.2330    4.7510   19.6410 O.3   1028  TIP1017    -0.4105
   3246 H1         -1.9750    4.1650   19.4910 H     1028  TIP1017     0.2052
   3247 H2         -0.4680    4.2410   19.3760 H     1028  TIP1017     0.2052
   3248 OH2         7.5420   17.9380   21.7120 O.3   1029  TIP1018    -0.4105
   3249 H1          7.2670   18.5810   21.0570 H     1029  TIP1018     0.2052
   3250 H2          7.7650   18.4610   22.4820 H     1029  TIP1018     0.2052
   3251 OH2        -9.6030  -20.5250   13.3900 O.3   1030  TIP1019    -0.4105
   3252 H1         -9.6950  -21.3040   13.9390 H     1030  TIP1019     0.2052
   3253 H2        -10.1150  -20.7220   12.6060 H     1030  TIP1019     0.2052
   3254 OH2        15.5360    8.7090  -23.2060 O.3   1031  TIP1020    -0.4105
   3255 H1         15.5970    7.8060  -23.5190 H     1031  TIP1020     0.2052
   3256 H2         16.4380    8.9510  -22.9950 H     1031  TIP1020     0.2052
   3257 OH2       -16.2500  -10.2200   13.9680 O.3   1032  TIP1021    -0.4105
   3258 H1        -15.9360   -9.6830   13.2400 H     1032  TIP1021     0.2052
   3259 H2        -16.9000  -10.8010   13.5740 H     1032  TIP1021     0.2052
   3260 OH2        -8.3690  -13.5000  -23.9370 O.3   1033  TIP1022    -0.4105
   3261 H1         -7.7750  -13.8760  -23.2880 H     1033  TIP1022     0.2052
   3262 H2         -8.7450  -14.2580  -24.3850 H     1033  TIP1022     0.2052
   3263 OH2        -7.5010   -7.2320  -16.3060 O.3   1034  TIP1023    -0.4105
   3264 H1         -7.5350   -7.8260  -15.5560 H     1034  TIP1023     0.2052
   3265 H2         -6.7370   -7.5190  -16.8060 H     1034  TIP1023     0.2052
   3266 OH2       -14.2720  -20.5760   -6.6860 O.3   1035  TIP1024    -0.4105
   3267 H1        -14.8490  -20.0730   -6.1120 H     1035  TIP1024     0.2052
   3268 H2        -13.9620  -19.9410   -7.3320 H     1035  TIP1024     0.2052
   3269 OH2        -3.0900   -8.1830  -23.6580 O.3   1036  TIP1025    -0.4105
   3270 H1         -3.7420   -8.0300  -24.3410 H     1036  TIP1025     0.2052
   3271 H2         -2.8880   -7.3110  -23.3200 H     1036  TIP1025     0.2052
   3272 OH2        17.5630   -1.7290   18.3720 O.3   1037  TIP1026    -0.4105
   3273 H1         17.5280   -0.7730   18.3560 H     1037  TIP1026     0.2052
   3274 H2         16.9560   -1.9800   19.0680 H     1037  TIP1026     0.2052
   3275 OH2       -10.0950   -6.5990    3.0750 O.3   1038  TIP1027    -0.4105
   3276 H1         -9.2330   -6.9290    3.3310 H     1038  TIP1027     0.2052
   3277 H2        -10.3350   -5.9890    3.7730 H     1038  TIP1027     0.2052
   3278 OH2         3.5540  -11.0020    1.0960 O.3   1039  TIP1028    -0.4105
   3279 H1          2.9820  -11.1720    1.8440 H     1039  TIP1028     0.2052
   3280 H2          4.3600  -10.6610    1.4820 H     1039  TIP1028     0.2052
   3281 OH2         0.2710  -15.3260   -4.3050 O.3   1040  TIP1029    -0.4105
   3282 H1         -0.2320  -15.4310   -5.1120 H     1040  TIP1029     0.2052
   3283 H2          0.5170  -16.2170   -4.0560 H     1040  TIP1029     0.2052
   3284 OH2       -17.7500  -23.4580  -20.2820 O.3   1041  TIP1030    -0.4105
   3285 H1        -18.3100  -23.6450  -21.0350 H     1041  TIP1030     0.2052
   3286 H2        -16.9160  -23.8780  -20.4930 H     1041  TIP1030     0.2052
   3287 OH2       -24.5800   18.4610   -3.1160 O.3   1042  TIP1031    -0.4105
   3288 H1        -25.5320   18.4710   -3.0110 H     1042  TIP1031     0.2052
   3289 H2        -24.2520   18.9740   -2.3770 H     1042  TIP1031     0.2052
   3290 OH2        30.6420    4.2820    2.0520 O.3   1043  TIP1032    -0.4105
   3291 H1         30.9640    5.1610    1.8520 H     1043  TIP1032     0.2052
   3292 H2         31.4270    3.7860    2.2840 H     1043  TIP1032     0.2052
   3293 OH2        21.1620  -14.8250   -5.4680 O.3   1044  TIP1033    -0.4105
   3294 H1         20.4230  -14.8300   -6.0760 H     1044  TIP1033     0.2052
   3295 H2         20.8020  -15.1660   -4.6490 H     1044  TIP1033     0.2052
   3296 OH2         2.3870   13.0150   28.6420 O.3   1045  TIP1034    -0.4105
   3297 H1          1.9200   12.4840   29.2870 H     1045  TIP1034     0.2052
   3298 H2          3.3120   12.8210   28.7960 H     1045  TIP1034     0.2052
   3299 OH2        -2.3260   23.7230   -5.8820 O.3   1046  TIP1035    -0.4105
   3300 H1         -2.6740   24.3580   -6.5080 H     1046  TIP1035     0.2052
   3301 H2         -1.6490   24.2030   -5.4050 H     1046  TIP1035     0.2052
   3302 OH2        28.3720   -9.7900    1.9950 O.3   1047  TIP1036    -0.4105
   3303 H1         28.9590  -10.5210    2.1900 H     1047  TIP1036     0.2052
   3304 H2         27.8330  -10.1030    1.2690 H     1047  TIP1036     0.2052
   3305 OH2       -12.6420  -16.3160  -15.1590 O.3   1048  TIP1037    -0.4105
   3306 H1        -12.5060  -17.2590  -15.0710 H     1048  TIP1037     0.2052
   3307 H2        -12.2370  -16.0920  -15.9970 H     1048  TIP1037     0.2052
   3308 OH2        17.8860  -30.4500   -1.9190 O.3   1049  TIP1038    -0.4105
   3309 H1         18.2240  -31.2740   -1.5690 H     1049  TIP1038     0.2052
   3310 H2         16.9940  -30.6560   -2.1970 H     1049  TIP1038     0.2052
   3311 OH2       -15.8600  -18.6060   17.6560 O.3   1050  TIP1039    -0.4105
   3312 H1        -16.6140  -18.5040   17.0770 H     1050  TIP1039     0.2052
   3313 H2        -15.9300  -17.8770   18.2730 H     1050  TIP1039     0.2052
   3314 OH2        -7.4750   -0.6520    4.2050 O.3   1051  TIP1040    -0.4105
   3315 H1         -8.4090   -0.7270    4.4010 H     1051  TIP1040     0.2052
   3316 H2         -7.1110   -0.1750    4.9500 H     1051  TIP1040     0.2052
   3317 OH2        11.4000    7.9220   21.8920 O.3   1052  TIP1041    -0.4105
   3318 H1         10.8570    8.5410   22.3790 H     1052  TIP1041     0.2052
   3319 H2         12.2990    8.1990   22.0710 H     1052  TIP1041     0.2052
   3320 OH2       -15.1160   -2.8750  -17.4030 O.3   1053  TIP1042    -0.4105
   3321 H1        -14.7750   -2.0200  -17.1410 H     1053  TIP1042     0.2052
   3322 H2        -14.4850   -3.5040  -17.0530 H     1053  TIP1042     0.2052
   3323 OH2         5.0310  -13.8200   16.8500 O.3   1054  TIP1043    -0.4105
   3324 H1          5.5120  -14.0870   16.0660 H     1054  TIP1043     0.2052
   3325 H2          5.0480  -14.5910   17.4160 H     1054  TIP1043     0.2052
   3326 OH2       -20.5340  -11.1160   -7.8300 O.3   1055  TIP1044    -0.4105
   3327 H1        -21.4910  -11.1150   -7.8390 H     1055  TIP1044     0.2052
   3328 H2        -20.2960  -10.2870   -7.4150 H     1055  TIP1044     0.2052
   3329 OH2        15.3020    3.2930    4.6790 O.3   1056  TIP1045    -0.4105
   3330 H1         14.8390    2.9650    3.9080 H     1056  TIP1045     0.2052
   3331 H2         15.1470    2.6290    5.3520 H     1056  TIP1045     0.2052
   3332 OH2        -7.3950   -9.9470   -3.3880 O.3   1057  TIP1046    -0.4105
   3333 H1         -7.2970   -9.0040   -3.5250 H     1057  TIP1046     0.2052
   3334 H2         -7.3580  -10.3220   -4.2680 H     1057  TIP1046     0.2052
   3335 OH2       -15.0640   33.9000    3.6470 O.3   1058  TIP1047    -0.4105
   3336 H1        -15.3800   33.0740    3.2820 H     1058  TIP1047     0.2052
   3337 H2        -14.1580   33.9640    3.3460 H     1058  TIP1047     0.2052
   3338 OH2       -10.9240    0.6830    0.8720 O.3   1059  TIP1048    -0.4105
   3339 H1        -10.5530    1.0560    0.0720 H     1059  TIP1048     0.2052
   3340 H2        -10.4540   -0.1420    0.9920 H     1059  TIP1048     0.2052
   3341 OH2        -1.2800   -2.6050   -4.5300 O.3   1060  TIP1049    -0.4105
   3342 H1         -1.9490   -3.1120   -4.9890 H     1060  TIP1049     0.2052
   3343 H2         -0.4930   -3.1490   -4.5760 H     1060  TIP1049     0.2052
   3344 OH2        11.5260   14.4580    3.1420 O.3   1061  TIP1050    -0.4105
   3345 H1         11.6550   13.5100    3.1160 H     1061  TIP1050     0.2052
   3346 H2         11.3560   14.7030    2.2320 H     1061  TIP1050     0.2052
   3347 OH2         1.1080   11.0370  -34.2500 O.3   1062  TIP1051    -0.4105
   3348 H1          1.9580   10.8460  -34.6460 H     1062  TIP1051     0.2052
   3349 H2          1.3200   11.4440  -33.4110 H     1062  TIP1051     0.2052
   3350 OH2        -7.4570    3.0380  -12.3010 O.3   1063  TIP1052    -0.4105
   3351 H1         -7.1280    2.9910  -13.1990 H     1063  TIP1052     0.2052
   3352 H2         -7.1770    2.2150  -11.9000 H     1063  TIP1052     0.2052
   3353 OH2         4.8110    3.0650   25.6200 O.3   1064  TIP1053    -0.4105
   3354 H1          4.3610    3.6800   25.0410 H     1064  TIP1053     0.2052
   3355 H2          4.2340    2.9840   26.3790 H     1064  TIP1053     0.2052
   3356 OH2         0.1310  -15.9430   14.0280 O.3   1065  TIP1054    -0.4105
   3357 H1          0.4870  -16.2180   13.1830 H     1065  TIP1054     0.2052
   3358 H2         -0.5460  -15.3040   13.8070 H     1065  TIP1054     0.2052
   3359 OH2        13.7430   24.1390   25.7080 O.3   1066  TIP1055    -0.4105
   3360 H1         13.6470   24.2510   24.7620 H     1066  TIP1055     0.2052
   3361 H2         13.5460   23.2150   25.8610 H     1066  TIP1055     0.2052
   3362 OH2       -14.6720  -19.5140    1.8280 O.3   1067  TIP1056    -0.4105
   3363 H1        -14.3140  -18.9720    2.5310 H     1067  TIP1056     0.2052
   3364 H2        -15.6040  -19.5890    2.0340 H     1067  TIP1056     0.2052
   3365 OH2        11.5570    1.3680   -9.0950 O.3   1068  TIP1057    -0.4105
   3366 H1         11.8410    0.5970   -8.6040 H     1068  TIP1057     0.2052
   3367 H2         11.2380    1.9750   -8.4270 H     1068  TIP1057     0.2052
   3368 OH2       -10.7400   29.0920   -9.9820 O.3   1069  TIP1058    -0.4105
   3369 H1        -10.1980   29.8800   -9.9370 H     1069  TIP1058     0.2052
   3370 H2        -10.8460   28.8220   -9.0700 H     1069  TIP1058     0.2052
   3371 OH2        -9.9120   23.1270   -2.2450 O.3   1070  TIP1059    -0.4105
   3372 H1         -9.7800   23.7930   -2.9200 H     1070  TIP1059     0.2052
   3373 H2        -10.3160   22.3930   -2.7070 H     1070  TIP1059     0.2052
   3374 OH2       -22.6220  -14.4500   12.6780 O.3   1071  TIP1060    -0.4105
   3375 H1        -22.7100  -14.2390   13.6070 H     1071  TIP1060     0.2052
   3376 H2        -21.9950  -15.1730   12.6540 H     1071  TIP1060     0.2052
   3377 OH2        -2.4070   -5.7680   14.2530 O.3   1072  TIP1061    -0.4105
   3378 H1         -2.0890   -4.8950   14.0220 H     1072  TIP1061     0.2052
   3379 H2         -1.6340   -6.3300   14.1880 H     1072  TIP1061     0.2052
   3380 OH2         8.4370   -3.9230   21.0330 O.3   1073  TIP1062    -0.4105
   3381 H1          7.6500   -4.4020   20.7730 H     1073  TIP1062     0.2052
   3382 H2          8.1100   -3.1930   21.5600 H     1073  TIP1062     0.2052
   3383 OH2       -15.0040   -2.8940   13.8050 O.3   1074  TIP1063    -0.4105
   3384 H1        -15.8250   -2.8080   14.2890 H     1074  TIP1063     0.2052
   3385 H2        -15.2260   -3.4380   13.0490 H     1074  TIP1063     0.2052
   3386 OH2         3.0300  -29.2500  -15.2670 O.3   1075  TIP1064    -0.4105
   3387 H1          2.5730  -28.4780  -15.6000 H     1075  TIP1064     0.2052
   3388 H2          3.6070  -28.9110  -14.5830 H     1075  TIP1064     0.2052
   3389 OH2       -14.4680    7.9190  -18.6750 O.3   1076  TIP1065    -0.4105
   3390 H1        -14.5040    6.9660  -18.7560 H     1076  TIP1065     0.2052
   3391 H2        -15.2250    8.2310  -19.1720 H     1076  TIP1065     0.2052
   3392 OH2       -12.9850  -18.3640   -7.8810 O.3   1077  TIP1066    -0.4105
   3393 H1        -13.2180  -18.6790   -8.7550 H     1077  TIP1066     0.2052
   3394 H2        -12.0590  -18.1300   -7.9500 H     1077  TIP1066     0.2052
   3395 OH2       -20.0810   -4.0040   -2.0310 O.3   1078  TIP1067    -0.4105
   3396 H1        -20.1120   -3.0480   -1.9840 H     1078  TIP1067     0.2052
   3397 H2        -20.9990   -4.2730   -2.0570 H     1078  TIP1067     0.2052
   3398 OH2        18.7510  -34.9440   -1.5350 O.3   1079  TIP1068    -0.4105
   3399 H1         18.5810  -35.6500   -2.1580 H     1079  TIP1068     0.2052
   3400 H2         19.6620  -34.6980   -1.6930 H     1079  TIP1068     0.2052
   3401 OH2       -25.5720    1.0380    1.5670 O.3   1080  TIP1069    -0.4105
   3402 H1        -24.9970    0.4300    1.1010 H     1080  TIP1069     0.2052
   3403 H2        -26.1020    0.4790    2.1350 H     1080  TIP1069     0.2052
   3404 OH2        -5.4990  -16.1380   37.2740 O.3   1081  TIP1070    -0.4105
   3405 H1         -4.7450  -15.6200   37.5550 H     1081  TIP1070     0.2052
   3406 H2         -5.7670  -15.7420   36.4450 H     1081  TIP1070     0.2052
   3407 OH2         5.0660   13.1790    5.1630 O.3   1082  TIP1071    -0.4105
   3408 H1          4.7950   12.4100    4.6600 H     1082  TIP1071     0.2052
   3409 H2          4.9420   12.9240    6.0770 H     1082  TIP1071     0.2052
   3410 OH2       -12.7970   24.8640    4.7270 O.3   1083  TIP1072    -0.4105
   3411 H1        -12.5110   25.7210    4.4090 H     1083  TIP1072     0.2052
   3412 H2        -12.7360   24.2920    3.9620 H     1083  TIP1072     0.2052
   3413 OH2        16.2530   14.0280   20.0270 O.3   1084  TIP1073    -0.4105
   3414 H1         15.8640   13.8890   19.1640 H     1084  TIP1073     0.2052
   3415 H2         15.8640   14.8460   20.3370 H     1084  TIP1073     0.2052
   3416 OH2       -14.2940  -15.2820  -28.8230 O.3   1085  TIP1074    -0.4105
   3417 H1        -14.6390  -16.1600  -28.9840 H     1085  TIP1074     0.2052
   3418 H2        -14.0370  -15.2900  -27.9010 H     1085  TIP1074     0.2052
   3419 OH2         8.8730  -17.0980   -9.4600 O.3   1086  TIP1075    -0.4105
   3420 H1          8.9380  -17.9370   -9.9140 H     1086  TIP1075     0.2052
   3421 H2          9.5900  -17.1130   -8.8250 H     1086  TIP1075     0.2052
   3422 OH2        -3.6430   -9.1110    8.3030 O.3   1087  TIP1076    -0.4105
   3423 H1         -3.2340   -8.9300    7.4570 H     1087  TIP1076     0.2052
   3424 H2         -4.3830   -8.5050    8.3460 H     1087  TIP1076     0.2052
   3425 OH2        -2.7770  -27.8850  -18.7790 O.3   1088  TIP1077    -0.4105
   3426 H1         -3.1190  -28.2870  -17.9810 H     1088  TIP1077     0.2052
   3427 H2         -3.1600  -28.3980  -19.4910 H     1088  TIP1077     0.2052
   3428 OH2        14.8550   -4.3790    3.3500 O.3   1089  TIP1078    -0.4105
   3429 H1         15.3870   -3.6680    3.7080 H     1089  TIP1078     0.2052
   3430 H2         15.2500   -4.5710    2.5000 H     1089  TIP1078     0.2052
   3431 OH2        15.1600   -1.9200  -16.7930 O.3   1090  TIP1079    -0.4105
   3432 H1         15.0540   -2.0520  -17.7350 H     1090  TIP1079     0.2052
   3433 H2         15.2010   -2.8040  -16.4290 H     1090  TIP1079     0.2052
   3434 OH2        26.9650    8.0140    4.0610 O.3   1091  TIP1080    -0.4105
   3435 H1         26.8510    7.9240    3.1140 H     1091  TIP1080     0.2052
   3436 H2         27.2650    7.1520    4.3490 H     1091  TIP1080     0.2052
   3437 OH2        -3.7240   21.8590    3.5070 O.3   1092  TIP1081    -0.4105
   3438 H1         -3.9010   22.5260    4.1710 H     1092  TIP1081     0.2052
   3439 H2         -2.8110   22.0020    3.2600 H     1092  TIP1081     0.2052
   3440 OH2        20.3070    9.4670   17.1270 O.3   1093  TIP1082    -0.4105
   3441 H1         20.8620   10.2370   17.2480 H     1093  TIP1082     0.2052
   3442 H2         19.5070    9.6690   17.6140 H     1093  TIP1082     0.2052
   3443 OH2         0.3010  -19.5910   12.9530 O.3   1094  TIP1083    -0.4105
   3444 H1          0.0110  -18.9280   13.5790 H     1094  TIP1083     0.2052
   3445 H2         -0.4150  -19.6510   12.3190 H     1094  TIP1083     0.2052
   3446 OH2         0.9630  -15.9430   11.4490 O.3   1095  TIP1084    -0.4105
   3447 H1          1.1560  -16.2550   10.5650 H     1095  TIP1084     0.2052
   3448 H2          0.1080  -15.5190   11.3720 H     1095  TIP1084     0.2052
   3449 OH2        25.9430    1.6670    6.7950 O.3   1096  TIP1085    -0.4105
   3450 H1         26.6360    2.2800    6.5500 H     1096  TIP1085     0.2052
   3451 H2         26.0330    1.5690    7.7430 H     1096  TIP1085     0.2052
   3452 OH2         9.9930   11.7400   18.9950 O.3   1097  TIP1086    -0.4105
   3453 H1         10.3680   12.0730   19.8110 H     1097  TIP1086     0.2052
   3454 H2          9.1200   11.4340   19.2400 H     1097  TIP1086     0.2052
   3455 OH2         6.4940   14.8310   15.9280 O.3   1098  TIP1087    -0.4105
   3456 H1          6.3950   14.6400   16.8610 H     1098  TIP1087     0.2052
   3457 H2          7.1560   14.2090   15.6250 H     1098  TIP1087     0.2052
   3458 OH2       -11.6160   -5.9110   -8.5770 O.3   1099  TIP1088    -0.4105
   3459 H1        -12.5170   -6.1330   -8.8150 H     1099  TIP1088     0.2052
   3460 H2        -11.5570   -6.1160   -7.6440 H     1099  TIP1088     0.2052
   3461 OH2         0.3610   -7.8000   -6.3210 O.3   1100  TIP1089    -0.4105
   3462 H1          0.6690   -8.6910   -6.1600 H     1100  TIP1089     0.2052
   3463 H2         -0.2650   -7.6310   -5.6160 H     1100  TIP1089     0.2052
   3464 OH2       -16.4470  -22.9090  -24.5900 O.3   1101  TIP1090    -0.4105
   3465 H1        -16.5290  -22.2260  -25.2550 H     1101  TIP1090     0.2052
   3466 H2        -17.0110  -23.6170  -24.9010 H     1101  TIP1090     0.2052
   3467 OH2        26.3490    5.7410   -2.3450 O.3   1102  TIP1091    -0.4105
   3468 H1         25.9120    5.6270   -3.1890 H     1102  TIP1091     0.2052
   3469 H2         26.9450    6.4780   -2.4800 H     1102  TIP1091     0.2052
   3470 OH2        11.5340  -22.3150   -1.8340 O.3   1103  TIP1092    -0.4105
   3471 H1         10.7010  -22.4280   -2.2900 H     1103  TIP1092     0.2052
   3472 H2         11.6000  -21.3720   -1.6840 H     1103  TIP1092     0.2052
   3473 OH2       -14.0660   20.9180    3.0020 O.3   1104  TIP1093    -0.4105
   3474 H1        -13.3400   21.5380    2.9370 H     1104  TIP1093     0.2052
   3475 H2        -13.9410   20.4900    3.8490 H     1104  TIP1093     0.2052
   3476 OH2       -29.5800   -8.6370    3.7030 O.3   1105  TIP1094    -0.4105
   3477 H1        -29.8570   -9.5460    3.5870 H     1105  TIP1094     0.2052
   3478 H2        -28.6230   -8.6780    3.7110 H     1105  TIP1094     0.2052
   3479 OH2       -15.5910    9.9470    2.5800 O.3   1106  TIP1095    -0.4105
   3480 H1        -15.9750   10.5860    1.9790 H     1106  TIP1095     0.2052
   3481 H2        -14.7160    9.7820    2.2270 H     1106  TIP1095     0.2052
   3482 OH2        14.1490    4.3390  -13.6540 O.3   1107  TIP1096    -0.4105
   3483 H1         14.7150    4.2970  -14.4250 H     1107  TIP1096     0.2052
   3484 H2         13.9780    3.4240  -13.4310 H     1107  TIP1096     0.2052
   3485 OH2        18.5910   14.5720  -13.1780 O.3   1108  TIP1097    -0.4105
   3486 H1         18.4720   13.6280  -13.0760 H     1108  TIP1097     0.2052
   3487 H2         19.5250   14.6780  -13.3590 H     1108  TIP1097     0.2052
   3488 OH2        27.0080   -3.9960   -5.0220 O.3   1109  TIP1098    -0.4105
   3489 H1         26.3570   -4.6850   -4.8880 H     1109  TIP1098     0.2052
   3490 H2         26.5860   -3.2000   -4.6990 H     1109  TIP1098     0.2052
   3491 OH2       -15.4900   29.1360    3.4750 O.3   1110  TIP1099    -0.4105
   3492 H1        -15.2860   30.0000    3.1190 H     1110  TIP1099     0.2052
   3493 H2        -14.6670   28.6500    3.4120 H     1110  TIP1099     0.2052
   3494 OH2        -3.8400    3.4680  -27.2680 O.3   1111  TIP1100    -0.4105
   3495 H1         -3.1370    3.6380  -27.8950 H     1111  TIP1100     0.2052
   3496 H2         -4.2720    2.6810  -27.5990 H     1111  TIP1100     0.2052
   3497 OH2        -0.0550   17.9910  -11.5480 O.3   1112  TIP1101    -0.4105
   3498 H1          0.7420   18.2280  -11.0740 H     1112  TIP1101     0.2052
   3499 H2         -0.6300   17.6190  -10.8800 H     1112  TIP1101     0.2052
   3500 OH2         4.4520   19.9570   21.2300 O.3   1113  TIP1102    -0.4105
   3501 H1          5.2180   19.5010   20.8830 H     1113  TIP1102     0.2052
   3502 H2          4.4170   20.7770   20.7380 H     1113  TIP1102     0.2052
   3503 OH2         7.3480   -2.8630   16.2510 O.3   1114  TIP1103    -0.4105
   3504 H1          8.0920   -2.6770   16.8240 H     1114  TIP1103     0.2052
   3505 H2          6.6850   -2.2200   16.5010 H     1114  TIP1103     0.2052
   3506 OH2        20.0060  -16.1210   -3.2760 O.3   1115  TIP1104    -0.4105
   3507 H1         19.3570  -15.4240   -3.1800 H     1115  TIP1104     0.2052
   3508 H2         19.4950  -16.9300   -3.2530 H     1115  TIP1104     0.2052
   3509 OH2       -14.3610   -7.5980   26.1870 O.3   1116  TIP1105    -0.4105
   3510 H1        -15.2040   -7.6590   25.7370 H     1116  TIP1105     0.2052
   3511 H2        -14.4980   -8.0550   27.0160 H     1116  TIP1105     0.2052
   3512 OH2        23.5750   -4.5270    8.6700 O.3   1117  TIP1106    -0.4105
   3513 H1         23.1350   -4.7180    9.4980 H     1117  TIP1106     0.2052
   3514 H2         24.2670   -5.1860    8.6090 H     1117  TIP1106     0.2052
   3515 OH2       -13.2990  -20.7990    5.7980 O.3   1118  TIP1107    -0.4105
   3516 H1        -14.1260  -20.9040    6.2680 H     1118  TIP1107     0.2052
   3517 H2        -13.0770  -19.8740    5.9070 H     1118  TIP1107     0.2052
   3518 OH2       -25.7160    3.5540   13.3220 O.3   1119  TIP1108    -0.4105
   3519 H1        -25.0490    2.9020   13.1050 H     1119  TIP1108     0.2052
   3520 H2        -26.4020    3.0570   13.7660 H     1119  TIP1108     0.2052
   3521 OH2        -2.2230  -21.6170  -18.3810 O.3   1120  TIP1109    -0.4105
   3522 H1         -3.0330  -21.5990  -17.8730 H     1120  TIP1109     0.2052
   3523 H2         -1.7140  -22.3300  -17.9970 H     1120  TIP1109     0.2052
   3524 OH2        18.3570  -18.1640    8.1470 O.3   1121  TIP1110    -0.4105
   3525 H1         18.7160  -18.7210    7.4560 H     1121  TIP1110     0.2052
   3526 H2         19.0920  -18.0140    8.7410 H     1121  TIP1110     0.2052
   3527 OH2        -2.2740   -3.9910    7.3990 O.3   1122  TIP1111    -0.4105
   3528 H1         -1.6770   -4.1420    8.1320 H     1122  TIP1111     0.2052
   3529 H2         -1.9990   -4.6190    6.7310 H     1122  TIP1111     0.2052
   3530 OH2        11.6740    9.2870   24.8420 O.3   1123  TIP1112    -0.4105
   3531 H1         12.6140    9.1080   24.8660 H     1123  TIP1112     0.2052
   3532 H2         11.6080   10.2370   24.9370 H     1123  TIP1112     0.2052
   3533 OH2        -3.1370   11.1300   19.3330 O.3   1124  TIP1113    -0.4105
   3534 H1         -2.8800   10.6110   18.5700 H     1124  TIP1113     0.2052
   3535 H2         -3.0190   10.5380   20.0760 H     1124  TIP1113     0.2052
   3536 OH2       -11.4110    8.7930   -8.3590 O.3   1125  TIP1114    -0.4105
   3537 H1        -10.7890    8.1120   -8.6160 H     1125  TIP1114     0.2052
   3538 H2        -10.8620    9.5270   -8.0810 H     1125  TIP1114     0.2052
   3539 OH2       -21.5100  -13.1420   25.4550 O.3   1126  TIP1115    -0.4105
   3540 H1        -20.8290  -12.6000   25.0570 H     1126  TIP1115     0.2052
   3541 H2        -21.6460  -12.7590   26.3220 H     1126  TIP1115     0.2052
   3542 OH2         2.1390   -7.9440   -3.5590 O.3   1127  TIP1116    -0.4105
   3543 H1          2.8280   -8.4780   -3.1650 H     1127  TIP1116     0.2052
   3544 H2          2.5390   -7.5820   -4.3500 H     1127  TIP1116     0.2052
   3545 OH2        -5.3630   10.8440    0.4560 O.3   1128  TIP1117    -0.4105
   3546 H1         -5.9600   10.6480    1.1780 H     1128  TIP1117     0.2052
   3547 H2         -5.5750   11.7430    0.2060 H     1128  TIP1117     0.2052
   3548 OH2       -13.1400  -17.8160  -19.3000 O.3   1129  TIP1118    -0.4105
   3549 H1        -12.8030  -16.9940  -18.9440 H     1129  TIP1118     0.2052
   3550 H2        -13.6220  -18.2120  -18.5740 H     1129  TIP1118     0.2052
   3551 OH2        16.3050  -24.5150    4.4480 O.3   1130  TIP1119    -0.4105
   3552 H1         15.8470  -24.9640    3.7370 H     1130  TIP1119     0.2052
   3553 H2         15.8580  -23.6720    4.5260 H     1130  TIP1119     0.2052
   3554 OH2        21.2570   -4.3240   -4.7620 O.3   1131  TIP1120    -0.4105
   3555 H1         22.2020   -4.2050   -4.6700 H     1131  TIP1120     0.2052
   3556 H2         20.9540   -3.5210   -5.1860 H     1131  TIP1120     0.2052
   3557 OH2        -8.1700   15.7920  -24.4820 O.3   1132  TIP1121    -0.4105
   3558 H1         -8.9400   15.9960  -25.0120 H     1132  TIP1121     0.2052
   3559 H2         -7.8050   16.6460  -24.2490 H     1132  TIP1121     0.2052
   3560 OH2       -19.6380   -9.1120  -11.9820 O.3   1133  TIP1122    -0.4105
   3561 H1        -20.4410   -8.6130  -11.8330 H     1133  TIP1122     0.2052
   3562 H2        -19.4350   -8.9690  -12.9070 H     1133  TIP1122     0.2052
   3563 OH2       -15.2430   29.0720   -0.7570 O.3   1134  TIP1123    -0.4105
   3564 H1        -15.4340   29.7980   -0.1630 H     1134  TIP1123     0.2052
   3565 H2        -14.3970   29.2970   -1.1450 H     1134  TIP1123     0.2052
   3566 OH2        -8.4580   -4.6200  -26.4570 O.3   1135  TIP1124    -0.4105
   3567 H1         -9.2770   -4.2420  -26.1360 H     1135  TIP1124     0.2052
   3568 H2         -8.1910   -4.0430  -27.1730 H     1135  TIP1124     0.2052
   3569 OH2        -4.8010   -3.8810   -9.8630 O.3   1136  TIP1125    -0.4105
   3570 H1         -5.3030   -3.4560  -10.5580 H     1136  TIP1125     0.2052
   3571 H2         -3.9640   -3.4170   -9.8520 H     1136  TIP1125     0.2052
   3572 OH2        14.2950    9.1400   10.0130 O.3   1137  TIP1126    -0.4105
   3573 H1         13.9880    8.5040   10.6600 H     1137  TIP1126     0.2052
   3574 H2         14.3100    8.6550    9.1880 H     1137  TIP1126     0.2052
   3575 OH2       -16.8510    6.8470    3.2730 O.3   1138  TIP1127    -0.4105
   3576 H1        -16.9190    7.4200    2.5090 H     1138  TIP1127     0.2052
   3577 H2        -15.9400    6.9310    3.5550 H     1138  TIP1127     0.2052
   3578 OH2        25.1290   -4.5240   -7.9760 O.3   1139  TIP1128    -0.4105
   3579 H1         24.1890   -4.6990   -7.9390 H     1139  TIP1128     0.2052
   3580 H2         25.5380   -5.3650   -7.7710 H     1139  TIP1128     0.2052
   3581 OH2        14.1900   22.5170   19.1350 O.3   1140  TIP1129    -0.4105
   3582 H1         13.6510   23.0320   19.7350 H     1140  TIP1129     0.2052
   3583 H2         13.9400   21.6090   19.3050 H     1140  TIP1129     0.2052
   3584 OH2        11.4870  -13.9480  -13.1440 O.3   1141  TIP1130    -0.4105
   3585 H1         11.6610  -13.0980  -12.7400 H     1141  TIP1130     0.2052
   3586 H2         11.9070  -14.5810  -12.5610 H     1141  TIP1130     0.2052
   3587 OH2        -1.6120    5.7830  -20.8640 O.3   1142  TIP1131    -0.4105
   3588 H1         -1.5190    6.0090  -21.7900 H     1142  TIP1131     0.2052
   3589 H2         -1.8860    6.5980  -20.4450 H     1142  TIP1131     0.2052
   3590 OH2        -2.6240   10.6300   10.8320 O.3   1143  TIP1132    -0.4105
   3591 H1         -2.2710   10.0960   10.1200 H     1143  TIP1132     0.2052
   3592 H2         -2.2480   10.2490   11.6260 H     1143  TIP1132     0.2052
   3593 OH2        13.7160    4.9500  -20.7220 O.3   1144  TIP1133    -0.4105
   3594 H1         14.6260    5.1640  -20.9270 H     1144  TIP1133     0.2052
   3595 H2         13.2020    5.4560  -21.3500 H     1144  TIP1133     0.2052
   3596 OH2        -4.4090   -1.1620   20.2720 O.3   1145  TIP1134    -0.4105
   3597 H1         -4.7730   -0.5660   20.9270 H     1145  TIP1134     0.2052
   3598 H2         -5.1560   -1.4010   19.7230 H     1145  TIP1134     0.2052
   3599 OH2        11.4930   16.6770  -22.2440 O.3   1146  TIP1135    -0.4105
   3600 H1         10.5790   16.6120  -21.9680 H     1146  TIP1135     0.2052
   3601 H2         11.4930   17.3610  -22.9140 H     1146  TIP1135     0.2052
   3602 OH2       -11.6780  -15.1400   10.9600 O.3   1147  TIP1136    -0.4105
   3603 H1        -11.4820  -14.9530   10.0420 H     1147  TIP1136     0.2052
   3604 H2        -11.1160  -15.8830   11.1790 H     1147  TIP1136     0.2052
   3605 OH2         1.8060    4.1530   -2.9480 O.3   1148  TIP1137    -0.4105
   3606 H1          2.2410    3.4450   -2.4740 H     1148  TIP1137     0.2052
   3607 H2          1.0090    4.3250   -2.4470 H     1148  TIP1137     0.2052
   3608 OH2       -21.2830    1.5450  -10.8350 O.3   1149  TIP1138    -0.4105
   3609 H1        -21.3320    2.1100  -11.6060 H     1149  TIP1138     0.2052
   3610 H2        -20.3460    1.4570  -10.6610 H     1149  TIP1138     0.2052
   3611 OH2        -8.5830   18.7560    4.1030 O.3   1150  TIP1139    -0.4105
   3612 H1         -8.9390   19.6400    4.0080 H     1150  TIP1139     0.2052
   3613 H2         -7.8750   18.7120    3.4600 H     1150  TIP1139     0.2052
   3614 OH2        24.1850   14.3640  -15.5130 O.3   1151  TIP1140    -0.4105
   3615 H1         24.0310   13.4890  -15.8690 H     1151  TIP1140     0.2052
   3616 H2         24.0360   14.2700  -14.5720 H     1151  TIP1140     0.2052
   3617 OH2        16.9780  -23.5950    9.9000 O.3   1152  TIP1141    -0.4105
   3618 H1         16.3830  -23.1700    9.2810 H     1152  TIP1141     0.2052
   3619 H2         16.8470  -24.5320    9.7540 H     1152  TIP1141     0.2052
   3620 OH2        -8.1640  -11.3440    5.2120 O.3   1153  TIP1142    -0.4105
   3621 H1         -7.6560  -11.9630    4.6880 H     1153  TIP1142     0.2052
   3622 H2         -7.6060  -11.1530    5.9660 H     1153  TIP1142     0.2052
   3623 OH2         7.5100  -32.3840   -8.0740 O.3   1154  TIP1143    -0.4105
   3624 H1          6.9030  -32.1990   -7.3570 H     1154  TIP1143     0.2052
   3625 H2          7.6400  -33.3320   -8.0400 H     1154  TIP1143     0.2052
   3626 OH2         5.7640  -15.2990   19.2870 O.3   1155  TIP1144    -0.4105
   3627 H1          5.0620  -14.9130   19.8100 H     1155  TIP1144     0.2052
   3628 H2          6.5080  -15.3550   19.8870 H     1155  TIP1144     0.2052
   3629 OH2         3.1230  -12.8740    9.9780 O.3   1156  TIP1145    -0.4105
   3630 H1          2.8100  -13.4270    9.2630 H     1156  TIP1145     0.2052
   3631 H2          2.3450  -12.4040   10.2760 H     1156  TIP1145     0.2052
   3632 OH2       -10.5970   -2.2220   -6.0150 O.3   1157  TIP1146    -0.4105
   3633 H1        -10.7060   -1.4360   -6.5500 H     1157  TIP1146     0.2052
   3634 H2        -11.1820   -2.8660   -6.4130 H     1157  TIP1146     0.2052
   3635 OH2         1.9380  -26.2670   13.9750 O.3   1158  TIP1147    -0.4105
   3636 H1          0.9920  -26.1390   13.9100 H     1158  TIP1147     0.2052
   3637 H2          2.0460  -27.2130   14.0730 H     1158  TIP1147     0.2052
   3638 OH2       -13.2920  -15.5780    2.5330 O.3   1159  TIP1148    -0.4105
   3639 H1        -12.9090  -15.6840    1.6620 H     1159  TIP1148     0.2052
   3640 H2        -14.2330  -15.6910    2.3970 H     1159  TIP1148     0.2052
   3641 OH2         8.6360    3.0200  -17.4980 O.3   1160  TIP1149    -0.4105
   3642 H1          8.9770    3.5410  -18.2250 H     1160  TIP1149     0.2052
   3643 H2          8.8990    2.1220  -17.7020 H     1160  TIP1149     0.2052
   3644 OH2       -22.2970  -19.6060  -18.1270 O.3   1161  TIP1150    -0.4105
   3645 H1        -21.8320  -20.2750  -17.6260 H     1161  TIP1150     0.2052
   3646 H2        -23.2200  -19.7430  -17.9120 H     1161  TIP1150     0.2052
   3647 OH2        10.9720  -25.0300   20.1780 O.3   1162  TIP1151    -0.4105
   3648 H1         10.6030  -24.5760   19.4200 H     1162  TIP1151     0.2052
   3649 H2         11.8350  -24.6320   20.2990 H     1162  TIP1151     0.2052
   3650 OH2        11.8230  -12.5480   18.2560 O.3   1163  TIP1152    -0.4105
   3651 H1         11.8440  -11.9080   18.9680 H     1163  TIP1152     0.2052
   3652 H2         12.5060  -13.1800   18.4810 H     1163  TIP1152     0.2052
   3653 OH2        13.0220   16.6560  -26.7030 O.3   1164  TIP1153    -0.4105
   3654 H1         12.9750   15.7020  -26.7660 H     1164  TIP1153     0.2052
   3655 H2         13.7930   16.8930  -27.2190 H     1164  TIP1153     0.2052
   3656 OH2         8.4560    9.8020  -15.2090 O.3   1165  TIP1154    -0.4105
   3657 H1          7.8630    9.8330  -15.9590 H     1165  TIP1154     0.2052
   3658 H2          9.2640   10.2080  -15.5250 H     1165  TIP1154     0.2052
   3659 OH2       -22.8470    3.7860   10.5800 O.3   1166  TIP1155    -0.4105
   3660 H1        -23.6310    4.1840   10.2020 H     1166  TIP1155     0.2052
   3661 H2        -22.3010    3.5670    9.8240 H     1166  TIP1155     0.2052
   3662 OH2         7.4420  -24.0420   20.6340 O.3   1167  TIP1156    -0.4105
   3663 H1          8.3630  -24.2100   20.4370 H     1167  TIP1156     0.2052
   3664 H2          6.9610  -24.6500   20.0730 H     1167  TIP1156     0.2052
   3665 OH2       -18.2300   20.3510   -3.8530 O.3   1168  TIP1157    -0.4105
   3666 H1        -17.6080   19.9830   -4.4810 H     1168  TIP1157     0.2052
   3667 H2        -17.6890   20.8650   -3.2530 H     1168  TIP1157     0.2052
   3668 OH2         5.3890   -1.0090  -13.2600 O.3   1169  TIP1158    -0.4105
   3669 H1          5.4130   -0.5930  -12.3980 H     1169  TIP1158     0.2052
   3670 H2          4.4570   -1.0980  -13.4580 H     1169  TIP1158     0.2052
   3671 OH2        10.3620  -13.0470   15.9340 O.3   1170  TIP1159    -0.4105
   3672 H1         10.8710  -12.9360   16.7360 H     1170  TIP1159     0.2052
   3673 H2          9.5290  -12.6120   16.1160 H     1170  TIP1159     0.2052
   3674 OH2       -19.1240   15.4470   -6.5390 O.3   1171  TIP1160    -0.4105
   3675 H1        -19.0690   15.9630   -7.3430 H     1171  TIP1160     0.2052
   3676 H2        -20.0550   15.4440   -6.3190 H     1171  TIP1160     0.2052
   3677 OH2        -5.3690    0.5530  -35.3220 O.3   1172  TIP1161    -0.4105
   3678 H1         -5.0220    0.0760  -36.0760 H     1172  TIP1161     0.2052
   3679 H2         -5.0600    1.4510  -35.4430 H     1172  TIP1161     0.2052
   3680 OH2       -23.7890   -0.7900   18.2660 O.3   1173  TIP1162    -0.4105
   3681 H1        -24.4920   -0.4720   17.7000 H     1173  TIP1162     0.2052
   3682 H2        -23.4050    0.0020   18.6410 H     1173  TIP1162     0.2052
   3683 OH2        12.5670  -24.1180   11.8160 O.3   1174  TIP1163    -0.4105
   3684 H1         12.0710  -23.6570   12.4930 H     1174  TIP1163     0.2052
   3685 H2         13.2850  -24.5380   12.2890 H     1174  TIP1163     0.2052
   3686 OH2        10.7980   27.7770   29.0590 O.3   1175  TIP1164    -0.4105
   3687 H1         11.4450   27.6450   29.7520 H     1175  TIP1164     0.2052
   3688 H2         11.1430   27.2880   28.3120 H     1175  TIP1164     0.2052
   3689 OH2       -18.1590   18.1140   10.7270 O.3   1176  TIP1165    -0.4105
   3690 H1        -18.3000   18.6270   11.5220 H     1176  TIP1165     0.2052
   3691 H2        -18.9110   17.5220   10.6870 H     1176  TIP1165     0.2052
   3692 OH2       -33.6160  -10.5130   11.5290 O.3   1177  TIP1166    -0.4105
   3693 H1        -34.0350   -9.7440   11.9160 H     1177  TIP1166     0.2052
   3694 H2        -34.0960  -11.2570   11.8930 H     1177  TIP1166     0.2052
   3695 OH2         6.0020   13.6360    1.2810 O.3   1178  TIP1167    -0.4105
   3696 H1          5.9950   13.8320    0.3440 H     1178  TIP1167     0.2052
   3697 H2          5.0920   13.4250    1.4890 H     1178  TIP1167     0.2052
   3698 OH2       -38.0750    1.3030    7.7530 O.3   1179  TIP1168    -0.4105
   3699 H1        -37.4480    0.6000    7.9270 H     1179  TIP1168     0.2052
   3700 H2        -37.6940    1.7880    7.0210 H     1179  TIP1168     0.2052
   3701 OH2        -7.2280  -17.1730   15.6220 O.3   1180  TIP1169    -0.4105
   3702 H1         -7.1600  -16.4490   16.2460 H     1180  TIP1169     0.2052
   3703 H2         -7.8090  -17.8030   16.0490 H     1180  TIP1169     0.2052
   3704 OH2        17.3860   -7.7400   -3.1880 O.3   1181  TIP1170    -0.4105
   3705 H1         16.6600   -7.4580   -3.7450 H     1181  TIP1170     0.2052
   3706 H2         18.1710   -7.4530   -3.6540 H     1181  TIP1170     0.2052
   3707 OH2        14.0970  -12.9250   16.4830 O.3   1182  TIP1171    -0.4105
   3708 H1         15.0100  -12.9310   16.7680 H     1182  TIP1171     0.2052
   3709 H2         13.8130  -12.0190   16.6030 H     1182  TIP1171     0.2052
   3710 OH2        17.3320  -14.0240  -12.0690 O.3   1183  TIP1172    -0.4105
   3711 H1         17.4290  -13.2300  -12.5960 H     1183  TIP1172     0.2052
   3712 H2         16.4020  -14.0530  -11.8470 H     1183  TIP1172     0.2052
   3713 OH2        -2.7230   -1.4430    7.5400 O.3   1184  TIP1173    -0.4105
   3714 H1         -2.4570   -2.3590    7.6210 H     1184  TIP1173     0.2052
   3715 H2         -3.6100   -1.4180    7.8990 H     1184  TIP1173     0.2052
   3716 OH2         4.1550   -7.8480    1.1870 O.3   1185  TIP1174    -0.4105
   3717 H1          4.7450   -8.3890    1.7110 H     1185  TIP1174     0.2052
   3718 H2          3.9740   -8.3750    0.4090 H     1185  TIP1174     0.2052
   3719 OH2        -0.3700   -7.9580   19.4330 O.3   1186  TIP1175    -0.4105
   3720 H1         -0.4780   -8.9010   19.5630 H     1186  TIP1175     0.2052
   3721 H2         -1.2630   -7.6180   19.3860 H     1186  TIP1175     0.2052
   3722 OH2       -13.9910   -9.7830  -26.0650 O.3   1187  TIP1176    -0.4105
   3723 H1        -14.5080  -10.4220  -26.5570 H     1187  TIP1176     0.2052
   3724 H2        -14.5730   -9.0290  -25.9670 H     1187  TIP1176     0.2052
   3725 OH2        11.8730   -3.4590   14.2430 O.3   1188  TIP1177    -0.4105
   3726 H1         11.2870   -2.7140   14.3790 H     1188  TIP1177     0.2052
   3727 H2         11.3370   -4.1040   13.7820 H     1188  TIP1177     0.2052
   3728 OH2        -7.0640   17.7270  -17.4660 O.3   1189  TIP1178    -0.4105
   3729 H1         -7.3940   18.4700  -16.9600 H     1189  TIP1178     0.2052
   3730 H2         -7.2720   16.9610  -16.9310 H     1189  TIP1178     0.2052
   3731 OH2        12.1120   -2.5530   -1.6840 O.3   1190  TIP1179    -0.4105
   3732 H1         12.5680   -2.7950   -0.8780 H     1190  TIP1179     0.2052
   3733 H2         11.8740   -3.3900   -2.0850 H     1190  TIP1179     0.2052
   3734 OH2         5.8200  -20.0970   28.1850 O.3   1191  TIP1180    -0.4105
   3735 H1          6.3410  -20.8550   27.9180 H     1191  TIP1180     0.2052
   3736 H2          5.4310  -19.7750   27.3720 H     1191  TIP1180     0.2052
   3737 OH2       -15.9130   24.5390    2.7250 O.3   1192  TIP1181    -0.4105
   3738 H1        -15.5200   25.0230    3.4510 H     1192  TIP1181     0.2052
   3739 H2        -16.8180   24.3900    2.9970 H     1192  TIP1181     0.2052
   3740 OH2       -24.5330  -15.8480   -5.3670 O.3   1193  TIP1182    -0.4105
   3741 H1        -23.5910  -15.7230   -5.2460 H     1193  TIP1182     0.2052
   3742 H2        -24.6970  -16.7430   -5.0710 H     1193  TIP1182     0.2052
   3743 OH2       -10.0020   32.4670   11.2490 O.3   1194  TIP1183    -0.4105
   3744 H1        -10.0050   31.5850   11.6210 H     1194  TIP1183     0.2052
   3745 H2         -9.3350   32.4360   10.5630 H     1194  TIP1183     0.2052
   3746 OH2         8.3150   22.4300   -1.8160 O.3   1195  TIP1184    -0.4105
   3747 H1          7.4390   22.5990   -2.1640 H     1195  TIP1184     0.2052
   3748 H2          8.8930   22.5050   -2.5760 H     1195  TIP1184     0.2052
   3749 OH2       -10.0100  -27.7150  -17.1730 O.3   1196  TIP1185    -0.4105
   3750 H1         -9.4240  -28.3680  -17.5560 H     1196  TIP1185     0.2052
   3751 H2         -9.4240  -27.0710  -16.7750 H     1196  TIP1185     0.2052
   3752 OH2        -4.6030   17.6660   -4.3280 O.3   1197  TIP1186    -0.4105
   3753 H1         -4.5330   17.0010   -3.6430 H     1197  TIP1186     0.2052
   3754 H2         -4.9350   18.4420   -3.8760 H     1197  TIP1186     0.2052
   3755 OH2       -16.8220   -4.5840  -15.5160 O.3   1198  TIP1187    -0.4105
   3756 H1        -16.8500   -4.9530  -16.3990 H     1198  TIP1187     0.2052
   3757 H2        -16.3290   -5.2240  -15.0030 H     1198  TIP1187     0.2052
   3758 OH2         6.3870   -9.0270    9.1960 O.3   1199  TIP1188    -0.4105
   3759 H1          5.7600   -9.5990    8.7530 H     1199  TIP1188     0.2052
   3760 H2          5.8710   -8.2660    9.4620 H     1199  TIP1188     0.2052
   3761 OH2        -1.2230   24.9390   -9.2610 O.3   1200  TIP1189    -0.4105
   3762 H1         -1.8600   24.2260   -9.3070 H     1200  TIP1189     0.2052
   3763 H2         -1.5830   25.5410   -8.6090 H     1200  TIP1189     0.2052
   3764 OH2        30.2110   11.6920  -15.5580 O.3   1201  TIP1190    -0.4105
   3765 H1         30.5800   10.8370  -15.7780 H     1201  TIP1190     0.2052
   3766 H2         30.1120   12.1350  -16.4010 H     1201  TIP1190     0.2052
   3767 OH2       -18.2760  -20.4090  -20.1650 O.3   1202  TIP1191    -0.4105
   3768 H1        -17.9710  -21.3010  -20.3300 H     1202  TIP1191     0.2052
   3769 H2        -18.0660  -19.9310  -20.9670 H     1202  TIP1191     0.2052
   3770 OH2         2.8560   -5.2520   15.3110 O.3   1203  TIP1192    -0.4105
   3771 H1          3.3230   -5.9490   15.7710 H     1203  TIP1192     0.2052
   3772 H2          3.2210   -5.2610   14.4260 H     1203  TIP1192     0.2052
   3773 OH2         4.8010   11.2040   15.7300 O.3   1204  TIP1193    -0.4105
   3774 H1          5.5400   11.2770   15.1260 H     1204  TIP1193     0.2052
   3775 H2          4.6060   12.1070   15.9810 H     1204  TIP1193     0.2052
   3776 OH2       -14.9100    1.2330  -18.8750 O.3   1205  TIP1194    -0.4105
   3777 H1        -14.0250    0.8700  -18.8310 H     1205  TIP1194     0.2052
   3778 H2        -15.3920    0.6240  -19.4340 H     1205  TIP1194     0.2052
   3779 OH2        -9.3420  -14.0840  -12.3330 O.3   1206  TIP1195    -0.4105
   3780 H1         -8.4230  -13.9000  -12.5250 H     1206  TIP1195     0.2052
   3781 H2         -9.7280  -14.2930  -13.1840 H     1206  TIP1195     0.2052
   3782 OH2       -11.3190  -22.5640   -5.8240 O.3   1207  TIP1196    -0.4105
   3783 H1        -11.7400  -22.2240   -6.6140 H     1207  TIP1196     0.2052
   3784 H2        -10.3880  -22.3800   -5.9510 H     1207  TIP1196     0.2052
   3785 OH2        -9.6010   -2.0110    1.5730 O.3   1208  TIP1197    -0.4105
   3786 H1         -8.9510   -1.3110    1.6280 H     1208  TIP1197     0.2052
   3787 H2         -9.3510   -2.6250    2.2630 H     1208  TIP1197     0.2052
   3788 OH2        22.5640   -5.6380   -7.3020 O.3   1209  TIP1198    -0.4105
   3789 H1         22.2550   -5.4970   -6.4070 H     1209  TIP1198     0.2052
   3790 H2         22.2660   -6.5210   -7.5220 H     1209  TIP1198     0.2052
   3791 OH2       -13.8730   -6.2550   11.1270 O.3   1210  TIP1199    -0.4105
   3792 H1        -13.3910   -6.7070   11.8190 H     1210  TIP1199     0.2052
   3793 H2        -13.8330   -6.8510   10.3780 H     1210  TIP1199     0.2052
   3794 OH2        11.2500  -18.6860   13.8180 O.3   1211  TIP1200    -0.4105
   3795 H1         10.5340  -18.1610   13.4610 H     1211  TIP1200     0.2052
   3796 H2         11.5690  -19.1960   13.0740 H     1211  TIP1200     0.2052
   3797 OH2        11.4910   14.4600   -5.3610 O.3   1212  TIP1201    -0.4105
   3798 H1         11.8420   13.5800   -5.4950 H     1212  TIP1201     0.2052
   3799 H2         12.2440   14.9770   -5.0730 H     1212  TIP1201     0.2052
   3800 OH2       -15.6830   30.5570   -7.4290 O.3   1213  TIP1202    -0.4105
   3801 H1        -15.9190   30.5020   -6.5030 H     1213  TIP1202     0.2052
   3802 H2        -16.4700   30.8950   -7.8570 H     1213  TIP1202     0.2052
   3803 OH2        -2.5820  -25.3560   11.9810 O.3   1214  TIP1203    -0.4105
   3804 H1         -3.4240  -25.1020   12.3580 H     1214  TIP1203     0.2052
   3805 H2         -2.4350  -24.7270   11.2740 H     1214  TIP1203     0.2052
   3806 OH2       -13.8310   -9.6900   -0.1050 O.3   1215  TIP1204    -0.4105
   3807 H1        -13.1930   -9.6940   -0.8180 H     1215  TIP1204     0.2052
   3808 H2        -13.3630  -10.0700    0.6390 H     1215  TIP1204     0.2052
   3809 OH2        17.3250   15.5760   10.0240 O.3   1216  TIP1205    -0.4105
   3810 H1         16.9440   16.0230   10.7800 H     1216  TIP1205     0.2052
   3811 H2         17.6780   14.7610   10.3810 H     1216  TIP1205     0.2052
   3812 OH2        19.5450   10.3880  -14.8060 O.3   1217  TIP1206    -0.4105
   3813 H1         19.7930    9.4660  -14.8750 H     1217  TIP1206     0.2052
   3814 H2         18.7160   10.4500  -15.2800 H     1217  TIP1206     0.2052
   3815 OH2        -1.1280    7.0430   -6.9540 O.3   1218  TIP1207    -0.4105
   3816 H1         -0.7430    7.7000   -7.5340 H     1218  TIP1207     0.2052
   3817 H2         -0.4810    6.3390   -6.9260 H     1218  TIP1207     0.2052
   3818 OH2        35.0820   10.4980   -0.4050 O.3   1219  TIP1208    -0.4105
   3819 H1         34.4470    9.8750   -0.7570 H     1219  TIP1208     0.2052
   3820 H2         34.5960   10.9860    0.2600 H     1219  TIP1208     0.2052
   3821 OH2        20.4360   -0.2650    7.6460 O.3   1220  TIP1209    -0.4105
   3822 H1         20.9880    0.4980    7.4750 H     1220  TIP1209     0.2052
   3823 H2         20.0210   -0.4550    6.8050 H     1220  TIP1209     0.2052
   3824 OH2        18.1280    5.3540    7.2550 O.3   1221  TIP1210    -0.4105
   3825 H1         18.1590    5.9440    8.0090 H     1221  TIP1210     0.2052
   3826 H2         17.3250    5.5960    6.7940 H     1221  TIP1210     0.2052
   3827 OH2        -4.8920   24.0230    5.1920 O.3   1222  TIP1211    -0.4105
   3828 H1         -5.5260   24.6780    4.9030 H     1222  TIP1211     0.2052
   3829 H2         -4.8230   24.1550    6.1370 H     1222  TIP1211     0.2052
   3830 OH2       -10.2090   21.1540   14.9440 O.3   1223  TIP1212    -0.4105
   3831 H1         -9.6100   20.5400   14.5180 H     1223  TIP1212     0.2052
   3832 H2         -9.6360   21.8090   15.3440 H     1223  TIP1212     0.2052
   3833 OH2         8.9450   19.0110   30.5670 O.3   1224  TIP1213    -0.4105
   3834 H1          8.7380   19.4340   29.7330 H     1224  TIP1213     0.2052
   3835 H2          8.1650   19.1470   31.1050 H     1224  TIP1213     0.2052
   3836 OH2        -1.3930   -8.1700  -10.2730 O.3   1225  TIP1214    -0.4105
   3837 H1         -0.4690   -8.4080  -10.3490 H     1225  TIP1214     0.2052
   3838 H2         -1.6240   -8.3890   -9.3700 H     1225  TIP1214     0.2052
   3839 OH2        10.1230  -24.8670   10.3930 O.3   1226  TIP1215    -0.4105
   3840 H1         11.0340  -24.7680   10.6690 H     1226  TIP1215     0.2052
   3841 H2          9.7160  -24.0270   10.6050 H     1226  TIP1215     0.2052
   3842 OH2        18.5520    0.1190   -1.6300 O.3   1227  TIP1216    -0.4105
   3843 H1         19.4040   -0.1080   -2.0020 H     1227  TIP1216     0.2052
   3844 H2         18.1460   -0.7230   -1.4270 H     1227  TIP1216     0.2052
   3845 OH2         6.7750    6.5730   21.8540 O.3   1228  TIP1217    -0.4105
   3846 H1          7.1890    6.7920   21.0190 H     1228  TIP1217     0.2052
   3847 H2          7.0450    5.6720   22.0270 H     1228  TIP1217     0.2052
   3848 OH2        -4.7580   11.0910   16.6760 O.3   1229  TIP1218    -0.4105
   3849 H1         -4.1180   10.3940   16.5350 H     1229  TIP1218     0.2052
   3850 H2         -5.1300   10.9060   17.5380 H     1229  TIP1218     0.2052
   3851 OH2       -36.0270   -8.0100    3.1120 O.3   1230  TIP1219    -0.4105
   3852 H1        -35.4910   -8.4240    2.4360 H     1230  TIP1219     0.2052
   3853 H2        -35.9080   -8.5620    3.8850 H     1230  TIP1219     0.2052
   3854 OH2        24.3370   14.5640   14.8120 O.3   1231  TIP1220    -0.4105
   3855 H1         23.8510   14.7290   15.6200 H     1231  TIP1220     0.2052
   3856 H2         25.2520   14.7160   15.0460 H     1231  TIP1220     0.2052
   3857 OH2        -4.4040  -19.3820   16.9490 O.3   1232  TIP1221    -0.4105
   3858 H1         -3.7730  -19.6730   17.6080 H     1232  TIP1221     0.2052
   3859 H2         -4.0680  -18.5360   16.6530 H     1232  TIP1221     0.2052
   3860 OH2         7.8300  -26.6730    2.5430 O.3   1233  TIP1222    -0.4105
   3861 H1          8.6590  -27.1520    2.5370 H     1233  TIP1222     0.2052
   3862 H2          8.0850  -25.7510    2.5220 H     1233  TIP1222     0.2052
   3863 OH2       -19.5850   33.6020    0.9870 O.3   1234  TIP1223    -0.4105
   3864 H1        -19.2580   32.7330    1.2180 H     1234  TIP1223     0.2052
   3865 H2        -20.4650   33.6340    1.3630 H     1234  TIP1223     0.2052
   3866 OH2         9.5280  -23.2120   -4.5710 O.3   1235  TIP1224    -0.4105
   3867 H1          8.8170  -22.6980   -4.9520 H     1235  TIP1224     0.2052
   3868 H2          9.2110  -23.4520   -3.7000 H     1235  TIP1224     0.2052
   3869 OH2        21.9150   -5.6740    1.5570 O.3   1236  TIP1225    -0.4105
   3870 H1         21.2400   -5.5630    2.2270 H     1236  TIP1225     0.2052
   3871 H2         22.6570   -5.1590    1.8750 H     1236  TIP1225     0.2052
   3872 OH2        11.3210   10.7990   16.7600 O.3   1237  TIP1226    -0.4105
   3873 H1         10.8480   11.2590   17.4540 H     1237  TIP1226     0.2052
   3874 H2         10.7060   10.1340   16.4510 H     1237  TIP1226     0.2052
   3875 OH2        11.6050    9.9920   13.7920 O.3   1238  TIP1227    -0.4105
   3876 H1         10.9490    9.6370   14.3920 H     1238  TIP1227     0.2052
   3877 H2         12.4350    9.6280   14.1010 H     1238  TIP1227     0.2052
   3878 OH2       -27.7700   -7.9620   -3.6330 O.3   1239  TIP1228    -0.4105
   3879 H1        -27.2060   -8.4850   -3.0630 H     1239  TIP1228     0.2052
   3880 H2        -27.1880   -7.6490   -4.3260 H     1239  TIP1228     0.2052
   3881 OH2       -21.3180   10.1530   -6.6370 O.3   1240  TIP1229    -0.4105
   3882 H1        -20.6050   10.7430   -6.8820 H     1240  TIP1229     0.2052
   3883 H2        -22.0950   10.7110   -6.6160 H     1240  TIP1229     0.2052
   3884 OH2         3.3330   26.9970   20.6790 O.3   1241  TIP1230    -0.4105
   3885 H1          2.8100   27.7950   20.6050 H     1241  TIP1230     0.2052
   3886 H2          3.9930   27.0780   19.9890 H     1241  TIP1230     0.2052
   3887 OH2        14.1060  -13.2040   10.9190 O.3   1242  TIP1231    -0.4105
   3888 H1         13.9240  -12.9000   11.8090 H     1242  TIP1231     0.2052
   3889 H2         15.0490  -13.3660   10.9100 H     1242  TIP1231     0.2052
   3890 OH2        31.5560   -8.0560   -5.3290 O.3   1243  TIP1232    -0.4105
   3891 H1         31.7480   -8.8640   -5.8060 H     1243  TIP1232     0.2052
   3892 H2         31.1130   -8.3470   -4.5320 H     1243  TIP1232     0.2052
   3893 OH2        -4.1850   21.4490   -1.1510 O.3   1244  TIP1233    -0.4105
   3894 H1         -3.8730   21.8150   -0.3230 H     1244  TIP1233     0.2052
   3895 H2         -4.1950   22.1920   -1.7540 H     1244  TIP1233     0.2052
   3896 OH2        -6.7040   19.3770  -19.7130 O.3   1245  TIP1234    -0.4105
   3897 H1         -6.9630   18.7230  -19.0640 H     1245  TIP1234     0.2052
   3898 H2         -6.2310   18.8790  -20.3790 H     1245  TIP1234     0.2052
   3899 OH2        -3.7700  -29.1800  -16.7020 O.3   1246  TIP1235    -0.4105
   3900 H1         -3.7690  -29.1630  -15.7450 H     1246  TIP1235     0.2052
   3901 H2         -3.7590  -30.1110  -16.9250 H     1246  TIP1235     0.2052
   3902 OH2        38.7880    7.6020   -7.4300 O.3   1247  TIP1236    -0.4105
   3903 H1         38.1150    6.9720   -7.1700 H     1247  TIP1236     0.2052
   3904 H2         39.6090    7.1120   -7.3750 H     1247  TIP1236     0.2052
   3905 OH2        21.4720   -4.9680  -13.5010 O.3   1248  TIP1237    -0.4105
   3906 H1         22.3300   -5.3530  -13.6790 H     1248  TIP1237     0.2052
   3907 H2         20.8710   -5.4490  -14.0710 H     1248  TIP1237     0.2052
   3908 OH2       -23.2650   -1.1330   -2.2490 O.3   1249  TIP1238    -0.4105
   3909 H1        -22.5120   -1.5130   -2.7010 H     1249  TIP1238     0.2052
   3910 H2        -23.8640   -0.8780   -2.9510 H     1249  TIP1238     0.2052
   3911 OH2        12.4120  -17.4180   -4.9610 O.3   1250  TIP1239    -0.4105
   3912 H1         12.9320  -17.7100   -5.7110 H     1250  TIP1239     0.2052
   3913 H2         12.3370  -18.1930   -4.4050 H     1250  TIP1239     0.2052
   3914 OH2       -11.7370    7.1180    1.4300 O.3   1251  TIP1240    -0.4105
   3915 H1        -11.7000    6.1700    1.5540 H     1251  TIP1240     0.2052
   3916 H2        -11.3370    7.2640    0.5720 H     1251  TIP1240     0.2052
   3917 OH2        17.8770  -25.9830   -1.0600 O.3   1252  TIP1241    -0.4105
   3918 H1         18.4400  -26.6780   -1.4020 H     1252  TIP1241     0.2052
   3919 H2         17.2090  -25.8610   -1.7340 H     1252  TIP1241     0.2052
   3920 OH2        21.6060   15.5310  -16.9280 O.3   1253  TIP1242    -0.4105
   3921 H1         21.4650   15.1660  -17.8020 H     1253  TIP1242     0.2052
   3922 H2         22.5550   15.5060  -16.8080 H     1253  TIP1242     0.2052
   3923 OH2       -15.2900   16.6830    4.2500 O.3   1254  TIP1243    -0.4105
   3924 H1        -15.1530   16.5130    3.3180 H     1254  TIP1243     0.2052
   3925 H2        -16.0480   16.1470    4.4830 H     1254  TIP1243     0.2052
   3926 OH2        17.3050  -10.1050    3.9680 O.3   1255  TIP1244    -0.4105
   3927 H1         17.7950  -10.9160    4.1040 H     1255  TIP1244     0.2052
   3928 H2         16.5060  -10.2190    4.4820 H     1255  TIP1244     0.2052
   3929 OH2        24.7960   15.8350    0.3800 O.3   1256  TIP1245    -0.4105
   3930 H1         24.1540   15.3150   -0.1030 H     1256  TIP1245     0.2052
   3931 H2         24.2710   16.4590    0.8820 H     1256  TIP1245     0.2052
   3932 OH2       -14.3010   -8.4110  -22.8820 O.3   1257  TIP1246    -0.4105
   3933 H1        -13.7330   -8.9940  -23.3860 H     1257  TIP1246     0.2052
   3934 H2        -13.7580   -7.6430  -22.7030 H     1257  TIP1246     0.2052
   3935 OH2        34.2750    6.1410  -11.6090 O.3   1258  TIP1247    -0.4105
   3936 H1         33.5150    6.6520  -11.3290 H     1258  TIP1247     0.2052
   3937 H2         34.8870    6.1990  -10.8760 H     1258  TIP1247     0.2052
   3938 OH2       -30.0540  -16.8930   -6.7230 O.3   1259  TIP1248    -0.4105
   3939 H1        -30.2150  -16.3420   -5.9570 H     1259  TIP1248     0.2052
   3940 H2        -29.8130  -17.7450   -6.3590 H     1259  TIP1248     0.2052
   3941 OH2        13.8050  -27.7140   -3.1470 O.3   1260  TIP1249    -0.4105
   3942 H1         13.3950  -27.8760   -2.2970 H     1260  TIP1249     0.2052
   3943 H2         13.1200  -27.9120   -3.7860 H     1260  TIP1249     0.2052
   3944 OH2         1.4840   12.5310   -1.9330 O.3   1261  TIP1250    -0.4105
   3945 H1          1.1530   13.1080   -2.6210 H     1261  TIP1250     0.2052
   3946 H2          1.1100   12.8820   -1.1250 H     1261  TIP1250     0.2052
   3947 OH2       -12.2240  -17.0530   -1.8170 O.3   1262  TIP1251    -0.4105
   3948 H1        -12.3870  -17.8060   -1.2490 H     1262  TIP1251     0.2052
   3949 H2        -13.0110  -16.9850   -2.3570 H     1262  TIP1251     0.2052
   3950 OH2         6.8530    5.2290  -12.3840 O.3   1263  TIP1252    -0.4105
   3951 H1          6.6220    4.7990  -13.2070 H     1263  TIP1252     0.2052
   3952 H2          6.4460    4.6860  -11.7080 H     1263  TIP1252     0.2052
   3953 OH2        -2.2830   11.8710   -6.8240 O.3   1264  TIP1253    -0.4105
   3954 H1         -2.7390   12.6840   -6.6080 H     1264  TIP1253     0.2052
   3955 H2         -2.9810   11.2250   -6.9310 H     1264  TIP1253     0.2052
   3956 OH2       -27.6120   -0.6340    5.9460 O.3   1265  TIP1254    -0.4105
   3957 H1        -28.0760   -1.4300    5.6870 H     1265  TIP1254     0.2052
   3958 H2        -27.7580   -0.0240    5.2230 H     1265  TIP1254     0.2052
   3959 OH2       -30.4670   10.6920    4.3100 O.3   1266  TIP1255    -0.4105
   3960 H1        -30.8140   11.2770    4.9830 H     1266  TIP1255     0.2052
   3961 H2        -30.6660    9.8120    4.6300 H     1266  TIP1255     0.2052
   3962 OH2        16.5670    8.5640    5.6060 O.3   1267  TIP1256    -0.4105
   3963 H1         17.5110    8.4060    5.5950 H     1267  TIP1256     0.2052
   3964 H2         16.1800    7.7250    5.3570 H     1267  TIP1256     0.2052
   3965 OH2        -9.0360  -26.2400   -6.7120 O.3   1268  TIP1257    -0.4105
   3966 H1         -8.1690  -25.8370   -6.6740 H     1268  TIP1257     0.2052
   3967 H2         -9.2660  -26.4010   -5.7960 H     1268  TIP1257     0.2052
   3968 OH2        14.4100  -22.7810    8.5730 O.3   1269  TIP1258    -0.4105
   3969 H1         14.4070  -22.3220    7.7330 H     1269  TIP1258     0.2052
   3970 H2         14.1730  -22.1100    9.2140 H     1269  TIP1258     0.2052
   3971 OH2         3.5440   -4.0120   12.2530 O.3   1270  TIP1259    -0.4105
   3972 H1          3.1160   -3.3040   12.7340 H     1270  TIP1259     0.2052
   3973 H2          4.4400   -4.0240   12.5890 H     1270  TIP1259     0.2052
   3974 OH2        -8.5030   15.4420  -18.7210 O.3   1271  TIP1260    -0.4105
   3975 H1         -8.9410   14.8080  -18.1540 H     1271  TIP1260     0.2052
   3976 H2         -7.9470   15.9490  -18.1290 H     1271  TIP1260     0.2052
   3977 OH2       -19.0740   -2.3160   -5.8710 O.3   1272  TIP1261    -0.4105
   3978 H1        -19.9380   -2.7250   -5.8200 H     1272  TIP1261     0.2052
   3979 H2        -19.2350   -1.3910   -5.6860 H     1272  TIP1261     0.2052
   3980 OH2       -10.2790  -13.0610  -28.4720 O.3   1273  TIP1262    -0.4105
   3981 H1        -11.2340  -13.0300  -28.4280 H     1273  TIP1262     0.2052
   3982 H2        -10.0910  -13.6560  -29.1980 H     1273  TIP1262     0.2052
   3983 OH2        -6.5800   -4.8830  -31.6480 O.3   1274  TIP1263    -0.4105
   3984 H1         -6.6140   -5.7010  -31.1510 H     1274  TIP1263     0.2052
   3985 H2         -7.1520   -5.0360  -32.4000 H     1274  TIP1263     0.2052
   3986 OH2       -15.9180  -11.0980   -1.6190 O.3   1275  TIP1264    -0.4105
   3987 H1        -15.1320  -10.5810   -1.4410 H     1275  TIP1264     0.2052
   3988 H2        -16.1200  -10.9180   -2.5370 H     1275  TIP1264     0.2052
   3989 OH2         7.5540    7.8160  -12.3440 O.3   1276  TIP1265    -0.4105
   3990 H1          7.1230    7.0020  -12.0830 H     1276  TIP1265     0.2052
   3991 H2          8.3160    7.5330  -12.8480 H     1276  TIP1265     0.2052
   3992 OH2        -5.9870   24.4930   15.7400 O.3   1277  TIP1266    -0.4105
   3993 H1         -5.9430   25.2380   15.1410 H     1277  TIP1266     0.2052
   3994 H2         -5.2590   23.9300   15.4760 H     1277  TIP1266     0.2052
   3995 OH2         9.1730   18.3930   26.3780 O.3   1278  TIP1267    -0.4105
   3996 H1          8.6570   17.6910   25.9820 H     1278  TIP1267     0.2052
   3997 H2          9.9830   17.9670   26.6580 H     1278  TIP1267     0.2052
   3998 OH2         0.3360   14.4410   10.1680 O.3   1279  TIP1268    -0.4105
   3999 H1          0.9240   13.6860   10.1850 H     1279  TIP1268     0.2052
   4000 H2          0.6590   15.0120   10.8650 H     1279  TIP1268     0.2052
   4001 OH2        14.4150   17.3900    7.8380 O.3   1280  TIP1269    -0.4105
   4002 H1         13.9160   16.7650    7.3110 H     1280  TIP1269     0.2052
   4003 H2         14.3320   17.0670    8.7350 H     1280  TIP1269     0.2052
   4004 OH2        28.7930    3.9070   -0.0570 O.3   1281  TIP1270    -0.4105
   4005 H1         27.9570    4.0620    0.3830 H     1281  TIP1270     0.2052
   4006 H2         29.4280    3.8260    0.6540 H     1281  TIP1270     0.2052
   4007 OH2       -17.7940    9.4440   -8.4720 O.3   1282  TIP1271    -0.4105
   4008 H1        -18.2900    9.2390   -7.6790 H     1282  TIP1271     0.2052
   4009 H2        -17.8710    8.6580   -9.0120 H     1282  TIP1271     0.2052
   4010 OH2        21.1850   17.7870    5.8160 O.3   1283  TIP1272    -0.4105
   4011 H1         20.4560   17.1720    5.8970 H     1283  TIP1272     0.2052
   4012 H2         21.2990   17.9020    4.8730 H     1283  TIP1272     0.2052
   4013 OH2       -17.0920   22.2450   -1.9450 O.3   1284  TIP1273    -0.4105
   4014 H1        -16.8330   22.4640   -2.8400 H     1284  TIP1273     0.2052
   4015 H2        -16.5260   22.7850   -1.3930 H     1284  TIP1273     0.2052
   4016 OH2        15.2220  -17.1160    6.7210 O.3   1285  TIP1274    -0.4105
   4017 H1         15.7050  -16.6040    6.0720 H     1285  TIP1274     0.2052
   4018 H2         14.3140  -16.8250    6.6280 H     1285  TIP1274     0.2052
   4019 OH2         8.8550  -12.9130   -5.0220 O.3   1286  TIP1275    -0.4105
   4020 H1          9.0470  -13.8310   -5.2140 H     1286  TIP1275     0.2052
   4021 H2          8.1370  -12.9450   -4.3900 H     1286  TIP1275     0.2052
   4022 OH2        18.2820   16.3920   14.3390 O.3   1287  TIP1276    -0.4105
   4023 H1         18.9420   16.7380   13.7390 H     1287  TIP1276     0.2052
   4024 H2         17.9330   17.1650   14.7830 H     1287  TIP1276     0.2052
   4025 OH2        -8.1800  -25.1460   -3.2230 O.3   1288  TIP1277    -0.4105
   4026 H1         -8.9940  -25.2370   -3.7180 H     1288  TIP1277     0.2052
   4027 H2         -7.5090  -24.9990   -3.8900 H     1288  TIP1277     0.2052
   4028 OH2         8.8150   15.5700   20.5980 O.3   1289  TIP1278    -0.4105
   4029 H1          8.1720   16.2670   20.7290 H     1289  TIP1278     0.2052
   4030 H2          9.3050   15.5380   21.4200 H     1289  TIP1278     0.2052
   4031 OH2        -3.5610    6.9140   24.3560 O.3   1290  TIP1279    -0.4105
   4032 H1         -4.0330    6.1650   24.7190 H     1290  TIP1279     0.2052
   4033 H2         -2.9620    6.5330   23.7140 H     1290  TIP1279     0.2052
   4034 OH2       -12.0210  -25.3700  -14.6170 O.3   1291  TIP1280    -0.4105
   4035 H1        -11.8400  -25.0370  -15.4960 H     1291  TIP1280     0.2052
   4036 H2        -11.2360  -25.1580  -14.1130 H     1291  TIP1280     0.2052
   4037 OH2         9.7190   -8.7890  -20.4460 O.3   1292  TIP1281    -0.4105
   4038 H1          9.5590   -9.7310  -20.5110 H     1292  TIP1281     0.2052
   4039 H2         10.4510   -8.7120  -19.8340 H     1292  TIP1281     0.2052
   4040 OH2       -22.8730  -11.1540    8.8010 O.3   1293  TIP1282    -0.4105
   4041 H1        -22.9630  -10.2340    9.0520 H     1293  TIP1282     0.2052
   4042 H2        -23.1290  -11.6420    9.5840 H     1293  TIP1282     0.2052
   4043 OH2        23.8470   -3.1970   -4.9760 O.3   1294  TIP1283    -0.4105
   4044 H1         24.2350   -2.8060   -4.1940 H     1294  TIP1283     0.2052
   4045 H2         24.3500   -2.8300   -5.7030 H     1294  TIP1283     0.2052
   4046 OH2       -11.2880   -0.7780  -10.1720 O.3   1295  TIP1284    -0.4105
   4047 H1        -11.6100   -1.6290  -10.4710 H     1295  TIP1284     0.2052
   4048 H2        -11.2570   -0.8540   -9.2190 H     1295  TIP1284     0.2052
   4049 OH2         6.2550   -5.9000   16.2840 O.3   1296  TIP1285    -0.4105
   4050 H1          5.6100   -6.2360   16.9070 H     1296  TIP1285     0.2052
   4051 H2          6.2920   -4.9600   16.4620 H     1296  TIP1285     0.2052
   4052 OH2        25.7230    3.1500   -6.5410 O.3   1297  TIP1286    -0.4105
   4053 H1         26.1890    2.3150   -6.4970 H     1297  TIP1286     0.2052
   4054 H2         24.7970    2.9080   -6.5440 H     1297  TIP1286     0.2052
   4055 OH2        -8.5650   11.4460  -11.4910 O.3   1298  TIP1287    -0.4105
   4056 H1         -7.9850   11.6860  -10.7680 H     1298  TIP1287     0.2052
   4057 H2         -9.3920   11.2140  -11.0690 H     1298  TIP1287     0.2052
   4058 OH2       -14.5270  -12.6410   26.3550 O.3   1299  TIP1288    -0.4105
   4059 H1        -14.8760  -13.4700   26.6820 H     1299  TIP1288     0.2052
   4060 H2        -15.0680  -12.4370   25.5920 H     1299  TIP1288     0.2052
   4061 OH2        22.3670   11.2120   14.1910 O.3   1300  TIP1289    -0.4105
   4062 H1         22.2280   10.9730   13.2740 H     1300  TIP1289     0.2052
   4063 H2         21.6120   11.7570   14.4130 H     1300  TIP1289     0.2052
   4064 OH2        29.2690   10.3040   -9.6780 O.3   1301  TIP1290    -0.4105
   4065 H1         29.2300   10.3260  -10.6340 H     1301  TIP1290     0.2052
   4066 H2         28.3670   10.1370   -9.4050 H     1301  TIP1290     0.2052
   4067 OH2         9.7510    8.2600  -10.8510 O.3   1302  TIP1291    -0.4105
   4068 H1          8.8330    8.2300  -11.1200 H     1302  TIP1291     0.2052
   4069 H2          9.7930    8.9800  -10.2220 H     1302  TIP1291     0.2052
   4070 OH2        -0.4210  -25.0660   13.8270 O.3   1303  TIP1292    -0.4105
   4071 H1          0.0390  -24.2500   13.6290 H     1303  TIP1292     0.2052
   4072 H2         -1.2670  -24.9770   13.3880 H     1303  TIP1292     0.2052
   4073 OH2        -9.3840    1.8740   15.9980 O.3   1304  TIP1293    -0.4105
   4074 H1        -10.1660    1.3520   15.8230 H     1304  TIP1293     0.2052
   4075 H2         -8.9400    1.4100   16.7090 H     1304  TIP1293     0.2052
   4076 OH2        -3.2450   -4.5320  -25.8990 O.3   1305  TIP1294    -0.4105
   4077 H1         -3.3060   -3.5980  -25.6960 H     1305  TIP1294     0.2052
   4078 H2         -4.1060   -4.7580  -26.2510 H     1305  TIP1294     0.2052
   4079 OH2        20.4570    3.6910   -0.6000 O.3   1306  TIP1295    -0.4105
   4080 H1         21.2620    3.5340   -0.1070 H     1306  TIP1295     0.2052
   4081 H2         20.5650    4.5710   -0.9610 H     1306  TIP1295     0.2052
   4082 OH2         7.2850  -19.0110  -13.5260 O.3   1307  TIP1296    -0.4105
   4083 H1          7.1570  -18.9160  -14.4700 H     1307  TIP1296     0.2052
   4084 H2          7.1870  -18.1240  -13.1800 H     1307  TIP1296     0.2052
   4085 OH2        16.5860   14.3190  -16.2670 O.3   1308  TIP1297    -0.4105
   4086 H1         16.2530   13.4930  -15.9170 H     1308  TIP1297     0.2052
   4087 H2         15.8840   14.9490  -16.1050 H     1308  TIP1297     0.2052
   4088 OH2         3.1850   21.3930    8.0040 O.3   1309  TIP1298    -0.4105
   4089 H1          3.9230   21.6620    7.4560 H     1309  TIP1298     0.2052
   4090 H2          2.4240   21.4510    7.4250 H     1309  TIP1298     0.2052
   4091 OH2       -10.0060   11.0700   -7.2680 O.3   1310  TIP1299    -0.4105
   4092 H1        -10.7770   11.5370   -6.9430 H     1310  TIP1299     0.2052
   4093 H2         -9.2650   11.5240   -6.8680 H     1310  TIP1299     0.2052
   4094 OH2         5.0520    2.5670  -20.7470 O.3   1311  TIP1300    -0.4105
   4095 H1          4.5620    1.8920  -20.2770 H     1311  TIP1300     0.2052
   4096 H2          4.4860    3.3380  -20.7190 H     1311  TIP1300     0.2052
   4097 OH2       -15.0010    2.5630   13.2350 O.3   1312  TIP1301    -0.4105
   4098 H1        -14.1450    2.2020   13.0040 H     1312  TIP1301     0.2052
   4099 H2        -15.0320    3.4110   12.7920 H     1312  TIP1301     0.2052
   4100 OH2        -2.5330   21.8790    6.6700 O.3   1313  TIP1302    -0.4105
   4101 H1         -2.8700   20.9940    6.5280 H     1313  TIP1302     0.2052
   4102 H2         -1.7740   21.7580    7.2400 H     1313  TIP1302     0.2052
   4103 OH2        12.6230   16.5580   24.1860 O.3   1314  TIP1303    -0.4105
   4104 H1         13.3580   17.1700   24.1610 H     1314  TIP1303     0.2052
   4105 H2         12.6860   16.0720   23.3640 H     1314  TIP1303     0.2052
   4106 OH2         7.5230   -5.9180   23.0980 O.3   1315  TIP1304    -0.4105
   4107 H1          7.5090   -5.7420   24.0390 H     1315  TIP1304     0.2052
   4108 H2          8.4010   -6.2610   22.9310 H     1315  TIP1304     0.2052
   4109 OH2        -9.9600   -9.8010   24.9690 O.3   1316  TIP1305    -0.4105
   4110 H1         -9.5970  -10.6430   24.6930 H     1316  TIP1305     0.2052
   4111 H2         -9.3610   -9.1500   24.6030 H     1316  TIP1305     0.2052
   4112 OH2        -6.4380    7.6720  -10.3750 O.3   1317  TIP1306    -0.4105
   4113 H1         -5.5140    7.4370  -10.2940 H     1317  TIP1306     0.2052
   4114 H2         -6.8940    6.8330  -10.4420 H     1317  TIP1306     0.2052
   4115 OH2       -29.2100  -13.6160   16.5520 O.3   1318  TIP1307    -0.4105
   4116 H1        -29.7420  -13.3810   15.7920 H     1318  TIP1307     0.2052
   4117 H2        -28.5170  -12.9560   16.5730 H     1318  TIP1307     0.2052
   4118 OH2       -11.6330    4.3690    2.7540 O.3   1319  TIP1308    -0.4105
   4119 H1        -12.1450    3.6290    3.0810 H     1319  TIP1308     0.2052
   4120 H2        -11.2250    4.0420    1.9520 H     1319  TIP1308     0.2052
   4121 OH2       -13.9370   10.9870   -3.2330 O.3   1320  TIP1309    -0.4105
   4122 H1        -13.8230   11.2450   -2.3180 H     1320  TIP1309     0.2052
   4123 H2        -14.2060   11.7920   -3.6760 H     1320  TIP1309     0.2052
   4124 OH2       -12.6220   -1.9900   24.5080 O.3   1321  TIP1310    -0.4105
   4125 H1        -11.8750   -2.0700   25.1010 H     1321  TIP1310     0.2052
   4126 H2        -13.1670   -2.7520   24.7040 H     1321  TIP1310     0.2052
   4127 OH2         2.2240   16.2930    9.0910 O.3   1322  TIP1311    -0.4105
   4128 H1          2.5520   15.5170    8.6360 H     1322  TIP1311     0.2052
   4129 H2          1.6400   15.9470    9.7660 H     1322  TIP1311     0.2052
   4130 OH2        -4.6400  -19.9490    8.8690 O.3   1323  TIP1312    -0.4105
   4131 H1         -3.7190  -19.7110    8.9740 H     1323  TIP1312     0.2052
   4132 H2         -4.6200  -20.8470    8.5380 H     1323  TIP1312     0.2052
   4133 OH2        18.7040   15.7250  -17.3270 O.3   1324  TIP1313    -0.4105
   4134 H1         19.4940   15.8650  -16.8050 H     1324  TIP1313     0.2052
   4135 H2         18.1570   15.1560  -16.7850 H     1324  TIP1313     0.2052
   4136 OH2       -15.5760   23.6330  -10.1300 O.3   1325  TIP1314    -0.4105
   4137 H1        -16.3300   23.8670  -10.6710 H     1325  TIP1314     0.2052
   4138 H2        -15.6690   22.6920   -9.9830 H     1325  TIP1314     0.2052
   4139 OH2       -13.2350  -23.7950  -19.6900 O.3   1326  TIP1315    -0.4105
   4140 H1        -14.0120  -23.9270  -19.1470 H     1326  TIP1315     0.2052
   4141 H2        -13.1410  -22.8440  -19.7470 H     1326  TIP1315     0.2052
   4142 OH2        24.6790  -12.0460   -8.6010 O.3   1327  TIP1316    -0.4105
   4143 H1         24.3160  -12.5850   -7.8980 H     1327  TIP1316     0.2052
   4144 H2         24.8860  -12.6680   -9.2980 H     1327  TIP1316     0.2052
   4145 OH2        20.6020   12.3220    4.8270 O.3   1328  TIP1317    -0.4105
   4146 H1         20.1940   12.9260    4.2070 H     1328  TIP1317     0.2052
   4147 H2         20.7300   12.8420    5.6200 H     1328  TIP1317     0.2052
   4148 OH2        12.2190  -20.3250   -9.1620 O.3   1329  TIP1318    -0.4105
   4149 H1         12.6840  -20.0370   -9.9480 H     1329  TIP1318     0.2052
   4150 H2         12.8970  -20.7230   -8.6150 H     1329  TIP1318     0.2052
   4151 OH2       -15.0220  -26.6920  -27.5090 O.3   1330  TIP1319    -0.4105
   4152 H1        -15.8800  -26.6470  -27.9320 H     1330  TIP1319     0.2052
   4153 H2        -14.9070  -25.8300  -27.1090 H     1330  TIP1319     0.2052
   4154 OH2        11.0040   11.9980  -24.3050 O.3   1331  TIP1320    -0.4105
   4155 H1         10.6940   11.4460  -23.5870 H     1331  TIP1320     0.2052
   4156 H2         11.5210   12.6800  -23.8770 H     1331  TIP1320     0.2052
   4157 OH2       -28.8910   -5.1760   18.0890 O.3   1332  TIP1321    -0.4105
   4158 H1        -28.6540   -4.2490   18.0670 H     1332  TIP1321     0.2052
   4159 H2        -29.6150   -5.2530   17.4670 H     1332  TIP1321     0.2052
   4160 OH2         9.0060   -6.7280   20.1600 O.3   1333  TIP1322    -0.4105
   4161 H1          9.0370   -5.7890   20.3450 H     1333  TIP1322     0.2052
   4162 H2          8.0790   -6.9120   20.0080 H     1333  TIP1322     0.2052
   4163 OH2        -2.0830    4.1480   30.1240 O.3   1334  TIP1323    -0.4105
   4164 H1         -2.3870    4.2280   31.0280 H     1334  TIP1323     0.2052
   4165 H2         -1.9490    3.2080   29.9990 H     1334  TIP1323     0.2052
   4166 OH2        -0.4720   15.5170   16.8930 O.3   1335  TIP1324    -0.4105
   4167 H1         -0.2440   15.1180   16.0540 H     1335  TIP1324     0.2052
   4168 H2         -0.9470   14.8310   17.3630 H     1335  TIP1324     0.2052
   4169 OH2        12.9970   -3.1790   18.8840 O.3   1336  TIP1325    -0.4105
   4170 H1         12.4780   -2.3760   18.9260 H     1336  TIP1325     0.2052
   4171 H2         13.8370   -2.9430   19.2780 H     1336  TIP1325     0.2052
   4172 OH2        14.9210   25.6890   20.8870 O.3   1337  TIP1326    -0.4105
   4173 H1         14.8140   25.3570   21.7780 H     1337  TIP1326     0.2052
   4174 H2         15.7640   25.3380   20.6000 H     1337  TIP1326     0.2052
   4175 OH2        -1.6850   -6.1860   28.0070 O.3   1338  TIP1327    -0.4105
   4176 H1         -1.1050   -5.5530   28.4300 H     1338  TIP1327     0.2052
   4177 H2         -1.5570   -6.0400   27.0700 H     1338  TIP1327     0.2052
   4178 OH2        -4.7100  -16.9840  -14.3710 O.3   1339  TIP1328    -0.4105
   4179 H1         -4.2440  -16.1490  -14.3260 H     1339  TIP1328     0.2052
   4180 H2         -4.5750  -17.3810  -13.5100 H     1339  TIP1328     0.2052
   4181 OH2        -3.6470   23.3000   20.0420 O.3   1340  TIP1329    -0.4105
   4182 H1         -3.9750   23.0270   19.1850 H     1340  TIP1329     0.2052
   4183 H2         -4.4140   23.6530   20.4920 H     1340  TIP1329     0.2052
   4184 OH2        14.8850   16.6240   15.7930 O.3   1341  TIP1330    -0.4105
   4185 H1         14.6010   16.9270   16.6550 H     1341  TIP1330     0.2052
   4186 H2         15.5980   17.2150   15.5530 H     1341  TIP1330     0.2052
   4187 OH2       -11.5160   -0.2220   -4.0460 O.3   1342  TIP1331    -0.4105
   4188 H1        -11.5430   -0.8990   -4.7220 H     1342  TIP1331     0.2052
   4189 H2        -12.1550   -0.5090   -3.3930 H     1342  TIP1331     0.2052
   4190 OH2        11.9520   -9.3900   18.9210 O.3   1343  TIP1332    -0.4105
   4191 H1         11.6030   -8.6630   18.4060 H     1343  TIP1332     0.2052
   4192 H2         12.5420   -9.8470   18.3210 H     1343  TIP1332     0.2052
   4193 OH2        -1.6500    6.1570  -23.6000 O.3   1344  TIP1333    -0.4105
   4194 H1         -2.1940    5.7830  -24.2930 H     1344  TIP1333     0.2052
   4195 H2         -0.8610    6.4580  -24.0500 H     1344  TIP1333     0.2052
   4196 OH2       -18.7400   -2.2690   18.2090 O.3   1345  TIP1334    -0.4105
   4197 H1        -19.5340   -2.2360   17.6750 H     1345  TIP1334     0.2052
   4198 H2        -18.4210   -1.3670   18.2220 H     1345  TIP1334     0.2052
   4199 OH2       -25.4410    5.8240    5.7070 O.3   1346  TIP1335    -0.4105
   4200 H1        -25.7630    4.9340    5.5580 H     1346  TIP1335     0.2052
   4201 H2        -25.9360    6.1340    6.4650 H     1346  TIP1335     0.2052
   4202 OH2         8.7800   20.4660   28.0420 O.3   1347  TIP1336    -0.4105
   4203 H1          9.6180   20.9290   28.0480 H     1347  TIP1336     0.2052
   4204 H2          8.8580   19.8410   27.3200 H     1347  TIP1336     0.2052
   4205 OH2         0.6940    3.9510  -15.7900 O.3   1348  TIP1337    -0.4105
   4206 H1          1.3120    4.2120  -16.4730 H     1348  TIP1337     0.2052
   4207 H2         -0.1670    4.1630  -16.1510 H     1348  TIP1337     0.2052
   4208 OH2        25.2410  -13.6930    2.5960 O.3   1349  TIP1338    -0.4105
   4209 H1         25.8660  -14.2180    2.0970 H     1349  TIP1338     0.2052
   4210 H2         24.4370  -13.7180    2.0770 H     1349  TIP1338     0.2052
   4211 OH2         4.1420   22.7350    4.3140 O.3   1350  TIP1339    -0.4105
   4212 H1          4.8410   22.7190    3.6590 H     1350  TIP1339     0.2052
   4213 H2          3.8710   23.6520    4.3540 H     1350  TIP1339     0.2052
   4214 OH2       -17.0940   19.3180    7.4230 O.3   1351  TIP1340    -0.4105
   4215 H1        -17.9680   18.9360    7.3450 H     1351  TIP1340     0.2052
   4216 H2        -16.7000   18.8650    8.1690 H     1351  TIP1340     0.2052
   4217 OH2       -18.3160    2.4100   16.9770 O.3   1352  TIP1341    -0.4105
   4218 H1        -17.5070    2.5960   17.4520 H     1352  TIP1341     0.2052
   4219 H2        -18.3640    3.0930   16.3070 H     1352  TIP1341     0.2052
   4220 OH2        12.1320  -19.3130   -1.4580 O.3   1353  TIP1342    -0.4105
   4221 H1         11.5670  -18.6720   -1.0260 H     1353  TIP1342     0.2052
   4222 H2         12.9610  -18.8520   -1.5900 H     1353  TIP1342     0.2052
   4223 OH2       -20.8980    2.3530   -5.9190 O.3   1354  TIP1343    -0.4105
   4224 H1        -21.7220    2.3950   -6.4040 H     1354  TIP1343     0.2052
   4225 H2        -20.2200    2.4260   -6.5900 H     1354  TIP1343     0.2052
   4226 OH2        -3.5990   20.6490   -7.2600 O.3   1355  TIP1344    -0.4105
   4227 H1         -3.4210   21.0970   -6.4330 H     1355  TIP1344     0.2052
   4228 H2         -3.3550   21.2830   -7.9340 H     1355  TIP1344     0.2052
   4229 OH2        -9.2170   25.2920   -4.2560 O.3   1356  TIP1345    -0.4105
   4230 H1         -9.6050   24.7220   -4.9200 H     1356  TIP1345     0.2052
   4231 H2         -8.3800   25.5640   -4.6320 H     1356  TIP1345     0.2052
   4232 OH2       -29.9860  -15.2740    5.9900 O.3   1357  TIP1346    -0.4105
   4233 H1        -29.5010  -14.5270    6.3400 H     1357  TIP1346     0.2052
   4234 H2        -30.3080  -14.9750    5.1400 H     1357  TIP1346     0.2052
   4235 OH2        12.4160  -13.4530    8.6350 O.3   1358  TIP1347    -0.4105
   4236 H1         13.2880  -13.2920    8.9970 H     1358  TIP1347     0.2052
   4237 H2         11.9440  -13.9010    9.3360 H     1358  TIP1347     0.2052
   4238 OH2       -20.3350   28.5040    0.4630 O.3   1359  TIP1348    -0.4105
   4239 H1        -19.8230   27.8640    0.9580 H     1359  TIP1348     0.2052
   4240 H2        -19.9840   28.4540   -0.4270 H     1359  TIP1348     0.2052
   4241 OH2        -6.6090    9.4070   25.3670 O.3   1360  TIP1349    -0.4105
   4242 H1         -6.5400   10.1990   25.9000 H     1360  TIP1349     0.2052
   4243 H2         -6.6720    8.6940   26.0030 H     1360  TIP1349     0.2052
   4244 OH2        11.1550  -22.1650    6.2680 O.3   1361  TIP1350    -0.4105
   4245 H1         10.9570  -21.9000    7.1660 H     1361  TIP1350     0.2052
   4246 H2         10.7590  -23.0330    6.1810 H     1361  TIP1350     0.2052
   4247 OH2       -22.3420  -16.9000    4.5150 O.3   1362  TIP1351    -0.4105
   4248 H1        -22.5280  -16.9130    5.4540 H     1362  TIP1351     0.2052
   4249 H2        -22.9810  -16.2860    4.1520 H     1362  TIP1351     0.2052
   4250 OH2       -29.2370    9.3650    7.9870 O.3   1363  TIP1352    -0.4105
   4251 H1        -28.2870    9.2760    7.9060 H     1363  TIP1352     0.2052
   4252 H2        -29.4380    9.0130    8.8540 H     1363  TIP1352     0.2052
   4253 OH2        -1.8240   -3.7240  -15.2200 O.3   1364  TIP1353    -0.4105
   4254 H1         -1.3280   -3.6000  -14.4110 H     1364  TIP1353     0.2052
   4255 H2         -1.8240   -2.8610  -15.6360 H     1364  TIP1353     0.2052
   4256 OH2        15.5710   24.2570   17.4790 O.3   1365  TIP1354    -0.4105
   4257 H1         14.6390   24.0360   17.5040 H     1365  TIP1354     0.2052
   4258 H2         16.0180   23.4110   17.4980 H     1365  TIP1354     0.2052
   4259 OH2        -0.8230   -3.4200   -7.5350 O.3   1366  TIP1355    -0.4105
   4260 H1         -0.6790   -4.2860   -7.9170 H     1366  TIP1355     0.2052
   4261 H2          0.0120   -3.2000   -7.1200 H     1366  TIP1355     0.2052
   4262 OH2         0.3710  -12.3310   -4.1170 O.3   1367  TIP1356    -0.4105
   4263 H1          0.5280  -12.1650   -3.1870 H     1367  TIP1356     0.2052
   4264 H2          0.1340  -13.2570   -4.1580 H     1367  TIP1356     0.2052
   4265 OH2        26.7100   -1.1910  -12.2630 O.3   1368  TIP1357    -0.4105
   4266 H1         26.2700   -0.3520  -12.1250 H     1368  TIP1357     0.2052
   4267 H2         26.5820   -1.6660  -11.4420 H     1368  TIP1357     0.2052
   4268 OH2       -18.5330   23.8700    2.8370 O.3   1369  TIP1358    -0.4105
   4269 H1        -18.6910   22.9280    2.7750 H     1369  TIP1358     0.2052
   4270 H2        -18.9150   24.1230    3.6780 H     1369  TIP1358     0.2052
   4271 OH2       -14.1740   31.1470    5.4960 O.3   1370  TIP1359    -0.4105
   4272 H1        -13.6480   30.7260    6.1750 H     1370  TIP1359     0.2052
   4273 H2        -13.8430   30.7830    4.6750 H     1370  TIP1359     0.2052
   4274 OH2        35.0740   10.4340  -10.9910 O.3   1371  TIP1360    -0.4105
   4275 H1         34.8500   10.4650  -11.9210 H     1371  TIP1360     0.2052
   4276 H2         35.8650    9.8970  -10.9520 H     1371  TIP1360     0.2052
   4277 OH2        -1.6720   13.3580   17.7950 O.3   1372  TIP1361    -0.4105
   4278 H1         -1.3410   12.4900   17.5660 H     1372  TIP1361     0.2052
   4279 H2         -2.4720   13.1870   18.2920 H     1372  TIP1361     0.2052
   4280 OH2         2.0140    4.8690   25.7000 O.3   1373  TIP1362    -0.4105
   4281 H1          2.2720    5.7590   25.9400 H     1373  TIP1362     0.2052
   4282 H2          1.0720    4.8400   25.8670 H     1373  TIP1362     0.2052
   4283 OH2        26.6900    0.5400   -6.5490 O.3   1374  TIP1363    -0.4105
   4284 H1         26.0190   -0.0970   -6.7960 H     1374  TIP1363     0.2052
   4285 H2         27.3770    0.4320   -7.2070 H     1374  TIP1363     0.2052
   4286 OH2         3.0870    0.7110  -20.2390 O.3   1375  TIP1364    -0.4105
   4287 H1          2.5220    0.3590  -20.9270 H     1375  TIP1364     0.2052
   4288 H2          2.5040    1.2460  -19.7000 H     1375  TIP1364     0.2052
   4289 OH2       -20.1750  -17.5780   -3.0540 O.3   1376  TIP1365    -0.4105
   4290 H1        -20.3860  -17.6330   -3.9860 H     1376  TIP1365     0.2052
   4291 H2        -19.2190  -17.6190   -3.0220 H     1376  TIP1365     0.2052
   4292 OH2        -5.3110   18.1860    4.0730 O.3   1377  TIP1366    -0.4105
   4293 H1         -4.9460   18.6120    4.8490 H     1377  TIP1366     0.2052
   4294 H2         -6.1140   18.6720    3.8870 H     1377  TIP1366     0.2052
   4295 OH2       -29.3550   -0.4880   11.5300 O.3   1378  TIP1367    -0.4105
   4296 H1        -28.4160   -0.5630   11.3590 H     1378  TIP1367     0.2052
   4297 H2        -29.7170   -0.1200   10.7240 H     1378  TIP1367     0.2052
   4298 OH2        -5.5440   -6.9440   -6.2780 O.3   1379  TIP1368    -0.4105
   4299 H1         -5.3340   -6.8270   -5.3520 H     1379  TIP1368     0.2052
   4300 H2         -5.3810   -6.0870   -6.6710 H     1379  TIP1368     0.2052
   4301 OH2        -9.7490  -12.9520   24.8130 O.3   1380  TIP1369    -0.4105
   4302 H1         -8.9530  -13.3590   25.1550 H     1380  TIP1369     0.2052
   4303 H2        -10.0110  -13.5120   24.0830 H     1380  TIP1369     0.2052
   4304 OH2        -7.8750   -1.6620   24.5650 O.3   1381  TIP1370    -0.4105
   4305 H1         -8.6090   -2.0090   25.0720 H     1381  TIP1370     0.2052
   4306 H2         -8.2650   -0.9890   24.0080 H     1381  TIP1370     0.2052
   4307 OH2       -10.6700   28.4850    5.0960 O.3   1382  TIP1371    -0.4105
   4308 H1        -10.0990   28.1540    5.7900 H     1382  TIP1371     0.2052
   4309 H2        -11.2470   29.1090    5.5370 H     1382  TIP1371     0.2052
   4310 OH2        29.5070   -7.4740    2.8460 O.3   1383  TIP1372    -0.4105
   4311 H1         28.7330   -6.9570    3.0730 H     1383  TIP1372     0.2052
   4312 H2         29.1630   -8.3420    2.6370 H     1383  TIP1372     0.2052
   4313 OH2        -6.1820    2.8320  -30.3470 O.3   1384  TIP1373    -0.4105
   4314 H1         -5.4050    3.3660  -30.5100 H     1384  TIP1373     0.2052
   4315 H2         -6.8640    3.4630  -30.1160 H     1384  TIP1373     0.2052
   4316 OH2       -25.7960  -12.4630   17.9080 O.3   1385  TIP1374    -0.4105
   4317 H1        -24.9890  -12.0250   18.1760 H     1385  TIP1374     0.2052
   4318 H2        -25.6900  -12.6090   16.9680 H     1385  TIP1374     0.2052
   4319 OH2        22.5040  -21.2060   -0.2580 O.3   1386  TIP1375    -0.4105
   4320 H1         22.6860  -22.1000   -0.5500 H     1386  TIP1375     0.2052
   4321 H2         22.5910  -20.6740   -1.0490 H     1386  TIP1375     0.2052
   4322 OH2         5.6590   23.0990  -10.7000 O.3   1387  TIP1376    -0.4105
   4323 H1          4.7660   23.4030  -10.5380 H     1387  TIP1376     0.2052
   4324 H2          5.9770   23.6580  -11.4100 H     1387  TIP1376     0.2052
   4325 OH2         2.5890    9.6340  -10.5680 O.3   1388  TIP1377    -0.4105
   4326 H1          3.4530    9.3340  -10.8500 H     1388  TIP1377     0.2052
   4327 H2          2.7670   10.2220   -9.8340 H     1388  TIP1377     0.2052
   4328 OH2       -16.2410  -18.9540  -23.2840 O.3   1389  TIP1378    -0.4105
   4329 H1        -17.1050  -18.6220  -23.0420 H     1389  TIP1378     0.2052
   4330 H2        -16.0490  -18.5360  -24.1230 H     1389  TIP1378     0.2052
   4331 OH2        -0.2960    9.0350    9.9210 O.3   1390  TIP1379    -0.4105
   4332 H1          0.5260    8.8520    9.4670 H     1390  TIP1379     0.2052
   4333 H2         -0.3790    8.3280   10.5610 H     1390  TIP1379     0.2052
   4334 OH2       -18.5660    4.8420   12.2160 O.3   1391  TIP1380    -0.4105
   4335 H1        -18.8420    5.5880   12.7490 H     1391  TIP1380     0.2052
   4336 H2        -18.9680    4.9960   11.3610 H     1391  TIP1380     0.2052
   4337 OH2        -8.5180   11.5030   14.3270 O.3   1392  TIP1381    -0.4105
   4338 H1         -9.0460   11.5450   13.5300 H     1392  TIP1381     0.2052
   4339 H2         -9.1430   11.2800   15.0180 H     1392  TIP1381     0.2052
   4340 OH2        13.4210  -25.0610    9.5050 O.3   1393  TIP1382    -0.4105
   4341 H1         13.1760  -24.5820   10.2960 H     1393  TIP1382     0.2052
   4342 H2         13.8960  -24.4210    8.9740 H     1393  TIP1382     0.2052
   4343 OH2       -29.6240   -6.2700    2.1810 O.3   1394  TIP1383    -0.4105
   4344 H1        -28.8210   -5.8320    2.4630 H     1394  TIP1383     0.2052
   4345 H2        -29.6970   -7.0310    2.7560 H     1394  TIP1383     0.2052
   4346 OH2         2.0580   19.0480   15.8590 O.3   1395  TIP1384    -0.4105
   4347 H1          2.1780   19.8160   16.4170 H     1395  TIP1384     0.2052
   4348 H2          1.1300   19.0650   15.6240 H     1395  TIP1384     0.2052
   4349 OH2        25.7190    3.3390  -10.2440 O.3   1396  TIP1385    -0.4105
   4350 H1         26.4360    3.0250  -10.7960 H     1396  TIP1385     0.2052
   4351 H2         25.0420    2.6670  -10.3260 H     1396  TIP1385     0.2052
   4352 OH2        19.4400    7.3960   -9.5970 O.3   1397  TIP1386    -0.4105
   4353 H1         18.7230    7.8090   -9.1150 H     1397  TIP1386     0.2052
   4354 H2         19.0280    7.0450  -10.3870 H     1397  TIP1386     0.2052
   4355 OH2        18.0010   24.0000   24.1260 O.3   1398  TIP1387    -0.4105
   4356 H1         17.4540   24.7800   24.0350 H     1398  TIP1387     0.2052
   4357 H2         18.8570   24.2670   23.7920 H     1398  TIP1387     0.2052
   4358 OH2         5.3520  -32.2200   -9.7700 O.3   1399  TIP1388    -0.4105
   4359 H1          4.5890  -32.6570   -9.3910 H     1399  TIP1388     0.2052
   4360 H2          6.0770  -32.4600   -9.1920 H     1399  TIP1388     0.2052
   4361 OH2        -4.0580  -18.7640    1.5760 O.3   1400  TIP1389    -0.4105
   4362 H1         -3.1450  -18.5370    1.4030 H     1400  TIP1389     0.2052
   4363 H2         -4.5620  -18.1780    1.0110 H     1400  TIP1389     0.2052
   4364 OH2       -17.5460   27.7340    7.3970 O.3   1401  TIP1390    -0.4105
   4365 H1        -16.7500   27.3040    7.7090 H     1401  TIP1390     0.2052
   4366 H2        -17.5430   27.5860    6.4510 H     1401  TIP1390     0.2052
   4367 OH2       -20.9240    1.2490    6.6580 O.3   1402  TIP1391    -0.4105
   4368 H1        -20.4310    0.5560    7.0980 H     1402  TIP1391     0.2052
   4369 H2        -20.4990    1.3410    5.8050 H     1402  TIP1391     0.2052
   4370 OH2        11.9660   -0.8250   -7.4720 O.3   1403  TIP1392    -0.4105
   4371 H1         11.5980   -1.6970   -7.3270 H     1403  TIP1392     0.2052
   4372 H2         12.8630   -0.9890   -7.7630 H     1403  TIP1392     0.2052
   4373 OH2        13.0310   24.4170   10.8770 O.3   1404  TIP1393    -0.4105
   4374 H1         13.4230   23.5940   11.1670 H     1404  TIP1393     0.2052
   4375 H2         13.4250   25.0830   11.4410 H     1404  TIP1393     0.2052
   4376 OH2         6.6900  -24.5570   -4.7420 O.3   1405  TIP1394    -0.4105
   4377 H1          6.7260  -24.3700   -3.8040 H     1405  TIP1394     0.2052
   4378 H2          6.5010  -23.7110   -5.1480 H     1405  TIP1394     0.2052
   4379 OH2        -3.0520  -14.6860    9.6550 O.3   1406  TIP1395    -0.4105
   4380 H1         -3.3990  -13.8050    9.5130 H     1406  TIP1395     0.2052
   4381 H2         -3.6010  -15.0510   10.3490 H     1406  TIP1395     0.2052
   4382 OH2        -2.8050  -14.5740   -4.5950 O.3   1407  TIP1396    -0.4105
   4383 H1         -2.8230  -13.9300   -5.3030 H     1407  TIP1396     0.2052
   4384 H2         -2.6980  -15.4150   -5.0390 H     1407  TIP1396     0.2052
   4385 OH2       -25.5320    8.9980    8.1730 O.3   1408  TIP1397    -0.4105
   4386 H1        -26.1220    9.0120    7.4200 H     1408  TIP1397     0.2052
   4387 H2        -25.2490    9.9060    8.2730 H     1408  TIP1397     0.2052
   4388 OH2        -5.2440   23.0400   -3.3380 O.3   1409  TIP1398    -0.4105
   4389 H1         -6.0900   22.7370   -3.0070 H     1409  TIP1398     0.2052
   4390 H2         -5.4590   23.7850   -3.8990 H     1409  TIP1398     0.2052
   4391 OH2        -2.8050    3.5800   13.7490 O.3   1410  TIP1399    -0.4105
   4392 H1         -3.6460    4.0350   13.7890 H     1410  TIP1399     0.2052
   4393 H2         -3.0170    2.7160   13.3970 H     1410  TIP1399     0.2052
   4394 OH2         6.8150   -3.5730   27.3070 O.3   1411  TIP1400    -0.4105
   4395 H1          7.4740   -3.6220   26.6150 H     1411  TIP1400     0.2052
   4396 H2          7.3190   -3.5850   28.1210 H     1411  TIP1400     0.2052
   4397 OH2        12.0750  -15.6500   12.6380 O.3   1412  TIP1401    -0.4105
   4398 H1         11.4780  -15.8300   13.3640 H     1412  TIP1401     0.2052
   4399 H2         11.5650  -15.1080   12.0360 H     1412  TIP1401     0.2052
   4400 OH2       -17.1920   21.4910    5.4200 O.3   1413  TIP1402    -0.4105
   4401 H1        -16.8980   20.7710    5.9790 H     1413  TIP1402     0.2052
   4402 H2        -17.1720   21.1290    4.5340 H     1413  TIP1402     0.2052
   4403 OH2         2.9750  -27.0720    5.8770 O.3   1414  TIP1403    -0.4105
   4404 H1          3.7280  -26.9830    5.2940 H     1414  TIP1403     0.2052
   4405 H2          2.7680  -28.0060    5.8620 H     1414  TIP1403     0.2052
   4406 OH2        29.0250    1.3890  -12.8170 O.3   1415  TIP1404    -0.4105
   4407 H1         29.3430    0.6830  -12.2540 H     1415  TIP1404     0.2052
   4408 H2         29.0630    1.0260  -13.7020 H     1415  TIP1404     0.2052
   4409 OH2        -9.0330  -21.8380   -7.0910 O.3   1416  TIP1405    -0.4105
   4410 H1         -8.1270  -22.0370   -6.8570 H     1416  TIP1405     0.2052
   4411 H2         -9.2350  -22.4410   -7.8060 H     1416  TIP1405     0.2052
   4412 OH2       -17.2770   -0.9790    7.4550 O.3   1417  TIP1406    -0.4105
   4413 H1        -17.1130   -0.1150    7.0770 H     1417  TIP1406     0.2052
   4414 H2        -17.9940   -0.8370    8.0740 H     1417  TIP1406     0.2052
   4415 OH2        -5.2200   17.2700  -29.8590 O.3   1418  TIP1407    -0.4105
   4416 H1         -5.4820   16.4330  -30.2420 H     1418  TIP1407     0.2052
   4417 H2         -4.5660   17.0390  -29.2000 H     1418  TIP1407     0.2052
   4418 OH2       -21.0070   -2.4450    4.2680 O.3   1419  TIP1408    -0.4105
   4419 H1        -21.3100   -1.6080    3.9170 H     1419  TIP1408     0.2052
   4420 H2        -20.4500   -2.8060    3.5780 H     1419  TIP1408     0.2052
   4421 OH2         8.6760   -6.9330   15.3500 O.3   1420  TIP1409    -0.4105
   4422 H1          7.9820   -6.8800   16.0080 H     1420  TIP1409     0.2052
   4423 H2          8.5180   -6.1840   14.7750 H     1420  TIP1409     0.2052
   4424 OH2        -9.1620  -21.8430    7.1380 O.3   1421  TIP1410    -0.4105
   4425 H1         -9.5420  -21.0210    7.4470 H     1421  TIP1410     0.2052
   4426 H2         -9.5500  -21.9750    6.2730 H     1421  TIP1410     0.2052
   4427 OH2        19.8510   19.1250   23.5630 O.3   1422  TIP1411    -0.4105
   4428 H1         19.3880   19.9620   23.5530 H     1422  TIP1411     0.2052
   4429 H2         19.3880   18.6020   24.2170 H     1422  TIP1411     0.2052
   4430 OH2        31.6740    7.1690    1.2530 O.3   1423  TIP1412    -0.4105
   4431 H1         31.5400    7.9790    0.7610 H     1423  TIP1412     0.2052
   4432 H2         32.6110    7.1600    1.4500 H     1423  TIP1412     0.2052
   4433 OH2        16.0930    3.2650   20.1280 O.3   1424  TIP1413    -0.4105
   4434 H1         15.1420    3.3490   20.0620 H     1424  TIP1413     0.2052
   4435 H2         16.4310    4.1020   19.8080 H     1424  TIP1413     0.2052
   4436 OH2       -31.8050   -7.1070   -2.5270 O.3   1425  TIP1414    -0.4105
   4437 H1        -32.3990   -7.5800   -1.9440 H     1425  TIP1414     0.2052
   4438 H2        -31.2860   -6.5540   -1.9440 H     1425  TIP1414     0.2052
   4439 OH2        -2.6030  -19.6100   12.1630 O.3   1426  TIP1415    -0.4105
   4440 H1         -2.8510  -18.8060   11.7060 H     1426  TIP1415     0.2052
   4441 H2         -2.3260  -20.2060   11.4670 H     1426  TIP1415     0.2052
   4442 OH2       -14.1180   13.2800    6.5270 O.3   1427  TIP1416    -0.4105
   4443 H1        -13.4530   12.8140    6.0190 H     1427  TIP1416     0.2052
   4444 H2        -14.0410   14.1910    6.2450 H     1427  TIP1416     0.2052
   4445 OH2        18.1930   21.4370   24.8410 O.3   1428  TIP1417    -0.4105
   4446 H1         18.0870   21.2890   25.7800 H     1428  TIP1417     0.2052
   4447 H2         18.1420   22.3880   24.7410 H     1428  TIP1417     0.2052
   4448 OH2       -26.7110   11.8010    8.0420 O.3   1429  TIP1418    -0.4105
   4449 H1        -26.4490   12.0180    7.1470 H     1429  TIP1418     0.2052
   4450 H2        -27.2370   12.5490    8.3260 H     1429  TIP1418     0.2052
   4451 OH2        -9.2400    6.2630  -25.3580 O.3   1430  TIP1419    -0.4105
   4452 H1         -9.6730    6.7910  -26.0290 H     1430  TIP1419     0.2052
   4453 H2         -9.7290    6.4450  -24.5560 H     1430  TIP1419     0.2052
   4454 OH2        10.1280   11.2550   -4.1840 O.3   1431  TIP1420    -0.4105
   4455 H1         10.5900   11.7180   -4.8840 H     1431  TIP1420     0.2052
   4456 H2         10.8170   10.9950   -3.5730 H     1431  TIP1420     0.2052
   4457 OH2        12.2340    8.1040   27.9730 O.3   1432  TIP1421    -0.4105
   4458 H1         11.4380    7.5830   28.0730 H     1432  TIP1421     0.2052
   4459 H2         12.3430    8.5420   28.8180 H     1432  TIP1421     0.2052
   4460 OH2       -10.0610  -20.0940   -9.8880 O.3   1433  TIP1422    -0.4105
   4461 H1         -9.8050  -20.3310  -10.7800 H     1433  TIP1422     0.2052
   4462 H2        -10.9550  -20.4240   -9.7990 H     1433  TIP1422     0.2052
   4463 OH2        -8.5620    5.1960   19.2960 O.3   1434  TIP1423    -0.4105
   4464 H1         -7.7600    5.6700   19.5170 H     1434  TIP1423     0.2052
   4465 H2         -8.2760    4.2930   19.1570 H     1434  TIP1423     0.2052
   4466 OH2        17.3110    9.5660   -0.0690 O.3   1435  TIP1424    -0.4105
   4467 H1         16.5360    9.5450    0.4930 H     1435  TIP1424     0.2052
   4468 H2         18.0470    9.4490    0.5320 H     1435  TIP1424     0.2052
   4469 OH2         6.0090   13.5770  -33.8980 O.3   1436  TIP1425    -0.4105
   4470 H1          6.0200   14.4680  -33.5480 H     1436  TIP1425     0.2052
   4471 H2          6.0450   13.0150  -33.1240 H     1436  TIP1425     0.2052
   4472 OH2        10.0240  -12.8600  -17.9990 O.3   1437  TIP1426    -0.4105
   4473 H1          9.1550  -12.9540  -17.6110 H     1437  TIP1426     0.2052
   4474 H2         10.6100  -13.3050  -17.3870 H     1437  TIP1426     0.2052
   4475 OH2       -23.0520   -2.9350  -11.6340 O.3   1438  TIP1427    -0.4105
   4476 H1        -23.2100   -2.7410  -10.7100 H     1438  TIP1427     0.2052
   4477 H2        -22.2050   -2.5310  -11.8230 H     1438  TIP1427     0.2052
   4478 OH2        -5.0880  -20.4260   21.4470 O.3   1439  TIP1428    -0.4105
   4479 H1         -4.9180  -20.5520   22.3810 H     1439  TIP1428     0.2052
   4480 H2         -5.2010  -19.4800   21.3500 H     1439  TIP1428     0.2052
   4481 OH2        20.9180   -9.8140    8.1660 O.3   1440  TIP1429    -0.4105
   4482 H1         20.8030   -9.2210    8.9090 H     1440  TIP1429     0.2052
   4483 H2         21.8500  -10.0330    8.1770 H     1440  TIP1429     0.2052
   4484 OH2         8.1170   16.8250   12.4630 O.3   1441  TIP1430    -0.4105
   4485 H1          8.4930   16.1790   13.0610 H     1441  TIP1430     0.2052
   4486 H2          7.5880   16.3090   11.8540 H     1441  TIP1430     0.2052
   4487 OH2        -7.3210   -2.5990   -8.5830 O.3   1442  TIP1431    -0.4105
   4488 H1         -6.7900   -2.6130   -9.3790 H     1442  TIP1431     0.2052
   4489 H2         -8.0040   -3.2520   -8.7380 H     1442  TIP1431     0.2052
   4490 OH2        -6.6920   23.9750  -15.1410 O.3   1443  TIP1432    -0.4105
   4491 H1         -7.0830   23.6380  -15.9460 H     1443  TIP1432     0.2052
   4492 H2         -7.2520   24.7100  -14.8920 H     1443  TIP1432     0.2052
   4493 OH2        23.8470    9.4890   -6.5330 O.3   1444  TIP1433    -0.4105
   4494 H1         23.7620    9.6770   -7.4680 H     1444  TIP1433     0.2052
   4495 H2         22.9780    9.6660   -6.1730 H     1444  TIP1433     0.2052
   4496 OH2        -5.2460  -24.3280  -16.8260 O.3   1445  TIP1434    -0.4105
   4497 H1         -5.4020  -24.4900  -17.7560 H     1445  TIP1434     0.2052
   4498 H2         -5.1970  -23.3750  -16.7530 H     1445  TIP1434     0.2052
   4499 OH2        -1.0090  -18.4300   21.8670 O.3   1446  TIP1435    -0.4105
   4500 H1         -0.8480  -17.8670   22.6230 H     1446  TIP1435     0.2052
   4501 H2         -1.0850  -19.3100   22.2340 H     1446  TIP1435     0.2052
   4502 OH2        25.4730   -0.4080   -0.1620 O.3   1447  TIP1436    -0.4105
   4503 H1         25.2350   -1.2810    0.1480 H     1447  TIP1436     0.2052
   4504 H2         24.6890   -0.0890   -0.6080 H     1447  TIP1436     0.2052
   4505 OH2         2.2110   10.1030   13.0660 O.3   1448  TIP1437    -0.4105
   4506 H1          3.0690   10.5150   12.9690 H     1448  TIP1437     0.2052
   4507 H2          2.2330    9.7020   13.9340 H     1448  TIP1437     0.2052
   4508 OH2       -18.4880   10.3930   -0.2190 O.3   1449  TIP1438    -0.4105
   4509 H1        -17.6560   10.7900    0.0410 H     1449  TIP1438     0.2052
   4510 H2        -18.7860   10.9250   -0.9570 H     1449  TIP1438     0.2052
   4511 OH2       -17.3050   12.3780  -15.0100 O.3   1450  TIP1439    -0.4105
   4512 H1        -16.7240   12.8910  -15.5720 H     1450  TIP1439     0.2052
   4513 H2        -17.7780   13.0310  -14.4940 H     1450  TIP1439     0.2052
   4514 OH2         6.8140    5.1480   26.2630 O.3   1451  TIP1440    -0.4105
   4515 H1          6.2730    5.4930   26.9730 H     1451  TIP1440     0.2052
   4516 H2          6.3070    4.4190   25.9070 H     1451  TIP1440     0.2052
   4517 OH2       -12.0200   23.4600   15.8840 O.3   1452  TIP1441    -0.4105
   4518 H1        -11.6670   22.7290   15.3760 H     1452  TIP1441     0.2052
   4519 H2        -12.9550   23.2700   15.9590 H     1452  TIP1441     0.2052
   4520 OH2         6.0580  -13.6550  -11.4210 O.3   1453  TIP1442    -0.4105
   4521 H1          6.0470  -14.4450  -10.8820 H     1453  TIP1442     0.2052
   4522 H2          6.9870  -13.4860  -11.5810 H     1453  TIP1442     0.2052
   4523 OH2       -14.0130  -14.9170  -13.4090 O.3   1454  TIP1443    -0.4105
   4524 H1        -13.3680  -15.4150  -13.9110 H     1454  TIP1443     0.2052
   4525 H2        -14.7710  -15.4980  -13.3480 H     1454  TIP1443     0.2052
   4526 OH2       -24.1420    2.2730   -4.8200 O.3   1455  TIP1444    -0.4105
   4527 H1        -24.8260    1.6180   -4.6820 H     1455  TIP1444     0.2052
   4528 H2        -24.3420    2.6530   -5.6760 H     1455  TIP1444     0.2052
   4529 OH2        -2.0060    8.7010  -20.3580 O.3   1456  TIP1445    -0.4105
   4530 H1         -1.2800    8.8150  -20.9710 H     1456  TIP1445     0.2052
   4531 H2         -1.6320    8.9060  -19.5020 H     1456  TIP1445     0.2052
   4532 OH2        -6.5240  -16.2610    3.5940 O.3   1457  TIP1446    -0.4105
   4533 H1         -7.1150  -16.5510    2.8990 H     1457  TIP1446     0.2052
   4534 H2         -6.4330  -15.3190    3.4550 H     1457  TIP1446     0.2052
   4535 OH2       -10.9060  -10.2920    1.9510 O.3   1458  TIP1447    -0.4105
   4536 H1        -11.3460  -10.6410    1.1760 H     1458  TIP1447     0.2052
   4537 H2        -11.6050  -10.1820    2.5960 H     1458  TIP1447     0.2052
   4538 OH2         8.4640    5.9690    8.2190 O.3   1459  TIP1448    -0.4105
   4539 H1          7.7350    5.8460    7.6100 H     1459  TIP1448     0.2052
   4540 H2          8.3290    5.3030    8.8930 H     1459  TIP1448     0.2052
   4541 OH2         2.3840    8.4260  -28.2820 O.3   1460  TIP1449    -0.4105
   4542 H1          2.4600    9.3770  -28.3610 H     1460  TIP1449     0.2052
   4543 H2          3.1160    8.1720  -27.7200 H     1460  TIP1449     0.2052
   4544 OH2       -17.1090   18.1310   -0.4850 O.3   1461  TIP1450    -0.4105
   4545 H1        -17.3710   18.1610   -1.4050 H     1461  TIP1450     0.2052
   4546 H2        -17.1260   19.0440   -0.2010 H     1461  TIP1450     0.2052
   4547 OH2        -1.9690  -10.5410   26.9150 O.3   1462  TIP1451    -0.4105
   4548 H1         -1.4650  -10.4290   26.1090 H     1462  TIP1451     0.2052
   4549 H2         -2.6790   -9.9030   26.8450 H     1462  TIP1451     0.2052
   4550 OH2        -7.8980   -6.3150  -10.6970 O.3   1463  TIP1452    -0.4105
   4551 H1         -8.3570   -7.0230  -10.2450 H     1463  TIP1452     0.2052
   4552 H2         -8.0840   -6.4620  -11.6240 H     1463  TIP1452     0.2052
   4553 OH2         6.6190  -16.7110    2.2690 O.3   1464  TIP1453    -0.4105
   4554 H1          6.3000  -16.7460    1.3670 H     1464  TIP1453     0.2052
   4555 H2          6.2060  -15.9310    2.6390 H     1464  TIP1453     0.2052
   4556 OH2       -18.0710  -21.4810   -5.8730 O.3   1465  TIP1454    -0.4105
   4557 H1        -18.1810  -21.2620   -6.7980 H     1465  TIP1454     0.2052
   4558 H2        -18.3080  -22.4070   -5.8150 H     1465  TIP1454     0.2052
   4559 OH2       -17.5590   29.9450    5.5130 O.3   1466  TIP1455    -0.4105
   4560 H1        -16.6450   29.9590    5.2280 H     1466  TIP1455     0.2052
   4561 H2        -17.5120   29.9210    6.4690 H     1466  TIP1455     0.2052
   4562 OH2       -18.1810    4.4430   19.2940 O.3   1467  TIP1456    -0.4105
   4563 H1        -18.6200    4.8620   18.5540 H     1467  TIP1456     0.2052
   4564 H2        -18.8930    4.1690   19.8720 H     1467  TIP1456     0.2052
   4565 OH2         8.3570  -19.5150  -10.8820 O.3   1468  TIP1457    -0.4105
   4566 H1          8.0300  -19.1880  -11.7200 H     1468  TIP1457     0.2052
   4567 H2          9.0150  -20.1680  -11.1190 H     1468  TIP1457     0.2052
   4568 OH2         7.7160   22.0570   15.5650 O.3   1469  TIP1458    -0.4105
   4569 H1          8.3540   22.7580   15.4330 H     1469  TIP1458     0.2052
   4570 H2          7.4250   21.8280   14.6830 H     1469  TIP1458     0.2052
   4571 OH2       -13.6350  -18.7640  -10.4450 O.3   1470  TIP1459    -0.4105
   4572 H1        -13.1640  -19.5540  -10.7100 H     1470  TIP1459     0.2052
   4573 H2        -14.5580  -18.9750  -10.5890 H     1470  TIP1459     0.2052
   4574 OH2        -3.7540    1.4380    6.9780 O.3   1471  TIP1460    -0.4105
   4575 H1         -4.1080    0.5890    7.2450 H     1471  TIP1460     0.2052
   4576 H2         -3.0920    1.2260    6.3210 H     1471  TIP1460     0.2052
   4577 OH2       -14.7710   -6.0870  -14.3320 O.3   1472  TIP1461    -0.4105
   4578 H1        -15.2870   -6.3480  -13.5690 H     1472  TIP1461     0.2052
   4579 H2        -14.0930   -6.7590  -14.4050 H     1472  TIP1461     0.2052
   4580 OH2        17.6670   11.9710  -13.0330 O.3   1473  TIP1462    -0.4105
   4581 H1         18.2560   11.4110  -13.5390 H     1473  TIP1462     0.2052
   4582 H2         16.7960   11.6030  -13.1850 H     1473  TIP1462     0.2052
   4583 OH2        14.3630   20.1810   10.8940 O.3   1474  TIP1463    -0.4105
   4584 H1         14.9190   20.5820   10.2260 H     1474  TIP1463     0.2052
   4585 H2         13.8470   19.5300   10.4180 H     1474  TIP1463     0.2052
   4586 OH2         2.1080  -18.2890   25.3730 O.3   1475  TIP1464    -0.4105
   4587 H1          1.3840  -18.7140   24.9130 H     1475  TIP1464     0.2052
   4588 H2          1.9760  -17.3540   25.2160 H     1475  TIP1464     0.2052
   4589 OH2       -13.2550    7.6660    8.6580 O.3   1476  TIP1465    -0.4105
   4590 H1        -13.8810    7.1320    8.1690 H     1476  TIP1465     0.2052
   4591 H2        -13.7080    8.4980    8.7970 H     1476  TIP1465     0.2052
   4592 OH2        -2.8110  -18.4560  -16.0640 O.3   1477  TIP1466    -0.4105
   4593 H1         -3.5280  -17.9150  -15.7360 H     1477  TIP1466     0.2052
   4594 H2         -2.1100  -17.8330  -16.2590 H     1477  TIP1466     0.2052
   4595 OH2        -1.8880  -20.8240    4.0520 O.3   1478  TIP1467    -0.4105
   4596 H1         -2.2700  -21.6710    3.8220 H     1478  TIP1467     0.2052
   4597 H2         -1.8760  -20.3350    3.2300 H     1478  TIP1467     0.2052
   4598 OH2        28.9420   10.6300    5.8780 O.3   1479  TIP1468    -0.4105
   4599 H1         29.7370   10.4370    5.3810 H     1479  TIP1468     0.2052
   4600 H2         29.1830   11.3680    6.4390 H     1479  TIP1468     0.2052
   4601 OH2        -2.8400  -17.7750   20.0700 O.3   1480  TIP1469    -0.4105
   4602 H1         -2.7030  -18.4320   19.3880 H     1480  TIP1469     0.2052
   4603 H2         -2.3310  -18.0930   20.8150 H     1480  TIP1469     0.2052
   4604 OH2        -7.3650   27.7960  -14.7420 O.3   1481  TIP1470    -0.4105
   4605 H1         -7.4230   27.2620  -13.9490 H     1481  TIP1470     0.2052
   4606 H2         -8.2210   28.2190  -14.8090 H     1481  TIP1470     0.2052
   4607 OH2        -4.9210   12.6360   -3.3800 O.3   1482  TIP1471    -0.4105
   4608 H1         -4.0100   12.6200   -3.0890 H     1482  TIP1471     0.2052
   4609 H2         -5.3890   12.1040   -2.7360 H     1482  TIP1471     0.2052
   4610 OH2       -12.6200    1.5280   10.8930 O.3   1483  TIP1472    -0.4105
   4611 H1        -12.3340    1.7340   11.7830 H     1483  TIP1472     0.2052
   4612 H2        -12.7230    0.5770   10.8880 H     1483  TIP1472     0.2052
   4613 OH2       -12.8830   20.8160   -7.5400 O.3   1484  TIP1473    -0.4105
   4614 H1        -13.3260   19.9970   -7.7590 H     1484  TIP1473     0.2052
   4615 H2        -13.5800   21.4730   -7.5370 H     1484  TIP1473     0.2052
   4616 OH2        16.6680  -24.8080   -3.2720 O.3   1485  TIP1474    -0.4105
   4617 H1         15.8710  -24.3550   -2.9990 H     1485  TIP1474     0.2052
   4618 H2         17.0290  -24.2600   -3.9690 H     1485  TIP1474     0.2052
   4619 OH2        -5.7660   -4.9550   -3.7140 O.3   1486  TIP1475    -0.4105
   4620 H1         -6.0390   -4.0820   -3.9950 H     1486  TIP1475     0.2052
   4621 H2         -4.9030   -4.8220   -3.3220 H     1486  TIP1475     0.2052
   4622 OH2        19.6050  -17.9600    4.1050 O.3   1487  TIP1476    -0.4105
   4623 H1         19.9560  -17.4170    4.8100 H     1487  TIP1476     0.2052
   4624 H2         19.0110  -18.5700    4.5440 H     1487  TIP1476     0.2052
   4625 OH2        16.2450   13.4100  -24.0850 O.3   1488  TIP1477    -0.4105
   4626 H1         16.8190   13.2780  -23.3300 H     1488  TIP1477     0.2052
   4627 H2         15.5770   12.7300  -23.9990 H     1488  TIP1477     0.2052
   4628 OH2       -15.7100   -5.0950    1.5670 O.3   1489  TIP1478    -0.4105
   4629 H1        -16.3240   -5.6350    2.0640 H     1489  TIP1478     0.2052
   4630 H2        -15.2340   -5.7180    1.0170 H     1489  TIP1478     0.2052
   4631 OH2        -7.2190  -16.7420   22.4250 O.3   1490  TIP1479    -0.4105
   4632 H1         -6.3670  -17.1300   22.2240 H     1490  TIP1479     0.2052
   4633 H2         -7.5960  -16.5340   21.5700 H     1490  TIP1479     0.2052
   4634 OH2       -18.3830    4.5130   15.0410 O.3   1491  TIP1480    -0.4105
   4635 H1        -17.5200    4.3230   14.6720 H     1491  TIP1480     0.2052
   4636 H2        -18.9120    4.7790   14.2890 H     1491  TIP1480     0.2052
   4637 OH2         9.5350   -7.7790    5.3390 O.3   1492  TIP1481    -0.4105
   4638 H1          9.2600   -7.4030    6.1760 H     1492  TIP1481     0.2052
   4639 H2          9.6380   -7.0240    4.7600 H     1492  TIP1481     0.2052
   4640 OH2        -1.7950    3.5130    7.9380 O.3   1493  TIP1482    -0.4105
   4641 H1         -2.5310    2.9570    7.6840 H     1493  TIP1482     0.2052
   4642 H2         -1.8980    3.6310    8.8830 H     1493  TIP1482     0.2052
   4643 OH2       -19.7490   -7.2210   -1.9200 O.3   1494  TIP1483    -0.4105
   4644 H1        -20.1260   -7.4740   -2.7630 H     1494  TIP1483     0.2052
   4645 H2        -19.8490   -6.2700   -1.8880 H     1494  TIP1483     0.2052
   4646 OH2       -24.6910   -1.2370   -7.7150 O.3   1495  TIP1484    -0.4105
   4647 H1        -25.3440   -0.6780   -7.2930 H     1495  TIP1484     0.2052
   4648 H2        -25.0530   -1.4150   -8.5830 H     1495  TIP1484     0.2052
   4649 OH2         4.4700    9.6020   27.1930 O.3   1496  TIP1485    -0.4105
   4650 H1          4.4380    9.6540   28.1490 H     1496  TIP1485     0.2052
   4651 H2          5.4000    9.5030   26.9890 H     1496  TIP1485     0.2052
   4652 OH2        -8.2200   -9.4400  -11.1680 O.3   1497  TIP1486    -0.4105
   4653 H1         -7.7320   -9.9010  -10.4860 H     1497  TIP1486     0.2052
   4654 H2         -8.9690   -9.0580  -10.7110 H     1497  TIP1486     0.2052
   4655 OH2       -16.1570  -21.3360  -26.8910 O.3   1498  TIP1487    -0.4105
   4656 H1        -16.9940  -20.9080  -26.7140 H     1498  TIP1487     0.2052
   4657 H2        -15.5160  -20.6240  -26.8780 H     1498  TIP1487     0.2052
   4658 OH2        -1.2140  -24.2820    9.5540 O.3   1499  TIP1488    -0.4105
   4659 H1         -0.6640  -24.9480    9.9660 H     1499  TIP1488     0.2052
   4660 H2         -0.6360  -23.8460    8.9290 H     1499  TIP1488     0.2052
   4661 OH2         9.8870   16.9790  -10.3320 O.3   1500  TIP1489    -0.4105
   4662 H1          9.4120   16.8840  -11.1570 H     1500  TIP1489     0.2052
   4663 H2          9.2490   16.7430   -9.6580 H     1500  TIP1489     0.2052
   4664 OH2        -4.7680   11.5070  -31.0370 O.3   1501  TIP1490    -0.4105
   4665 H1         -4.2580   11.5610  -31.8460 H     1501  TIP1490     0.2052
   4666 H2         -5.5970   11.9370  -31.2470 H     1501  TIP1490     0.2052
   4667 OH2        -4.4140    5.7620   17.1460 O.3   1502  TIP1491    -0.4105
   4668 H1         -4.2160    6.1040   18.0180 H     1502  TIP1491     0.2052
   4669 H2         -5.2720    6.1300   16.9340 H     1502  TIP1491     0.2052
   4670 OH2         8.0240   19.1180  -16.7310 O.3   1503  TIP1492    -0.4105
   4671 H1          8.8790   19.2890  -16.3360 H     1503  TIP1492     0.2052
   4672 H2          7.7740   19.9510  -17.1320 H     1503  TIP1492     0.2052
   4673 OH2        -1.2890   17.0340  -24.5180 O.3   1504  TIP1493    -0.4105
   4674 H1         -2.0860   16.6840  -24.9150 H     1504  TIP1493     0.2052
   4675 H2         -1.0760   16.4150  -23.8190 H     1504  TIP1493     0.2052
   4676 OH2        35.2260   12.7340   -2.1700 O.3   1505  TIP1494    -0.4105
   4677 H1         34.3900   13.1180   -1.9060 H     1505  TIP1494     0.2052
   4678 H2         35.4210   12.0930   -1.4870 H     1505  TIP1494     0.2052
   4679 OH2         4.7150    8.1800  -22.1850 O.3   1506  TIP1495    -0.4105
   4680 H1          5.2060    7.7130  -21.5090 H     1506  TIP1495     0.2052
   4681 H2          3.7970    8.0550  -21.9450 H     1506  TIP1495     0.2052
   4682 OH2         0.4990  -16.6540   16.6830 O.3   1507  TIP1496    -0.4105
   4683 H1          1.1690  -16.0830   17.0590 H     1507  TIP1496     0.2052
   4684 H2          0.4330  -16.3770   15.7690 H     1507  TIP1496     0.2052
   4685 OH2         2.0960   15.6320   -3.1700 O.3   1508  TIP1497    -0.4105
   4686 H1          2.6880   15.9840   -2.5050 H     1508  TIP1497     0.2052
   4687 H2          2.6770   15.2760   -3.8430 H     1508  TIP1497     0.2052
   4688 OH2        12.9500  -30.6240   -7.2490 O.3   1509  TIP1498    -0.4105
   4689 H1         12.1440  -30.3540   -7.6880 H     1509  TIP1498     0.2052
   4690 H2         12.7100  -31.4200   -6.7740 H     1509  TIP1498     0.2052
   4691 OH2         9.1730   20.0250  -10.3340 O.3   1510  TIP1499    -0.4105
   4692 H1          9.8380   19.3700  -10.1250 H     1510  TIP1499     0.2052
   4693 H2          8.3960   19.5150  -10.5630 H     1510  TIP1499     0.2052
   4694 OH2        23.2040  -23.6460   -1.5840 O.3   1511  TIP1500    -0.4105
   4695 H1         22.4140  -24.1860   -1.5600 H     1511  TIP1500     0.2052
   4696 H2         23.9250  -24.2740   -1.5490 H     1511  TIP1500     0.2052
   4697 OH2        23.1010    7.0940  -10.9910 O.3   1512  TIP1501    -0.4105
   4698 H1         23.6670    7.6400  -11.5360 H     1512  TIP1501     0.2052
   4699 H2         22.4130    6.7940  -11.5850 H     1512  TIP1501     0.2052
   4700 OH2        -0.1640   -4.9030  -25.2560 O.3   1513  TIP1502    -0.4105
   4701 H1          0.3610   -4.1040  -25.2970 H     1513  TIP1502     0.2052
   4702 H2         -0.5830   -4.9600  -26.1150 H     1513  TIP1502     0.2052
   4703 OH2        -3.4890   24.9660   17.4370 O.3   1514  TIP1503    -0.4105
   4704 H1         -3.4840   25.4400   16.6050 H     1514  TIP1503     0.2052
   4705 H2         -4.0870   25.4640   17.9940 H     1514  TIP1503     0.2052
   4706 OH2         3.9770   -3.7810  -24.2400 O.3   1515  TIP1504    -0.4105
   4707 H1          4.2350   -4.5320  -23.7040 H     1515  TIP1504     0.2052
   4708 H2          4.4680   -3.8880  -25.0540 H     1515  TIP1504     0.2052
   4709 OH2       -26.7920   -8.2810    3.0520 O.3   1516  TIP1505    -0.4105
   4710 H1        -27.1480   -8.0770    2.1870 H     1516  TIP1505     0.2052
   4711 H2        -25.9680   -7.7970    3.0930 H     1516  TIP1505     0.2052
   4712 OH2        -5.5830   13.6580    0.8460 O.3   1517  TIP1506    -0.4105
   4713 H1         -5.1720   14.5190    0.9250 H     1517  TIP1506     0.2052
   4714 H2         -6.2760   13.6610    1.5060 H     1517  TIP1506     0.2052
   4715 OH2         0.7290   -8.9280   22.6790 O.3   1518  TIP1507    -0.4105
   4716 H1          0.2660   -8.6640   21.8850 H     1518  TIP1507     0.2052
   4717 H2          0.0390   -9.2260   23.2720 H     1518  TIP1507     0.2052
   4718 OH2       -21.9890   24.4910    2.6950 O.3   1519  TIP1508    -0.4105
   4719 H1        -21.5260   23.9480    2.0570 H     1519  TIP1508     0.2052
   4720 H2        -21.7360   25.3880    2.4750 H     1519  TIP1508     0.2052
   4721 OH2       -14.8330   -8.7550  -20.1130 O.3   1520  TIP1509    -0.4105
   4722 H1        -15.7470   -9.0380  -20.1420 H     1520  TIP1509     0.2052
   4723 H2        -14.6330   -8.4970  -21.0130 H     1520  TIP1509     0.2052
   4724 OH2       -24.7410   23.5580    2.8320 O.3   1521  TIP1510    -0.4105
   4725 H1        -24.9800   24.3590    3.3000 H     1521  TIP1510     0.2052
   4726 H2        -23.7890   23.5070    2.9150 H     1521  TIP1510     0.2052
   4727 OH2       -20.8630   -9.7110   14.8700 O.3   1522  TIP1511    -0.4105
   4728 H1        -21.4880   -9.0020   15.0200 H     1522  TIP1511     0.2052
   4729 H2        -20.0520   -9.4060   15.2760 H     1522  TIP1511     0.2052
   4730 OH2        -9.1110  -15.0380   -1.2930 O.3   1523  TIP1512    -0.4105
   4731 H1         -9.3190  -14.3250   -1.8970 H     1523  TIP1512     0.2052
   4732 H2         -9.2120  -14.6530   -0.4230 H     1523  TIP1512     0.2052
   4733 OH2        14.8010  -18.8310   -9.2380 O.3   1524  TIP1513    -0.4105
   4734 H1         14.4800  -18.9260  -10.1350 H     1524  TIP1513     0.2052
   4735 H2         15.0540  -17.9100   -9.1710 H     1524  TIP1513     0.2052
   4736 OH2       -19.1530   -9.2170   -9.3930 O.3   1525  TIP1514    -0.4105
   4737 H1        -19.3480   -9.2390  -10.3300 H     1525  TIP1514     0.2052
   4738 H2        -19.0700  -10.1370   -9.1440 H     1525  TIP1514     0.2052
   4739 OH2       -11.9700   24.3600    1.8030 O.3   1526  TIP1515    -0.4105
   4740 H1        -12.7070   23.8720    1.4380 H     1526  TIP1515     0.2052
   4741 H2        -12.0240   25.2220    1.3890 H     1526  TIP1515     0.2052
   4742 OH2         6.4980   17.3590   15.3150 O.3   1527  TIP1516    -0.4105
   4743 H1          7.3470   17.6640   14.9950 H     1527  TIP1516     0.2052
   4744 H2          6.5550   16.4050   15.2780 H     1527  TIP1516     0.2052
   4745 OH2       -17.9680  -15.3780   -5.2100 O.3   1528  TIP1517    -0.4105
   4746 H1        -17.8290  -16.0030   -4.4980 H     1528  TIP1517     0.2052
   4747 H2        -18.4550  -14.6590   -4.8060 H     1528  TIP1517     0.2052
   4748 OH2         2.8070   15.2340  -27.2820 O.3   1529  TIP1518    -0.4105
   4749 H1          2.6010   15.4200  -26.3670 H     1529  TIP1518     0.2052
   4750 H2          2.0280   15.5100  -27.7650 H     1529  TIP1518     0.2052
   4751 OH2        -2.6970    1.2680  -19.4210 O.3   1530  TIP1519    -0.4105
   4752 H1         -3.3260    0.6780  -19.8360 H     1530  TIP1519     0.2052
   4753 H2         -3.2050    2.0520  -19.2120 H     1530  TIP1519     0.2052
   4754 OH2        19.3930  -34.4060    3.1270 O.3   1531  TIP1520    -0.4105
   4755 H1         19.8530  -35.2400    3.0270 H     1531  TIP1520     0.2052
   4756 H2         18.5360  -34.6450    3.4790 H     1531  TIP1520     0.2052
   4757 OH2         6.3060   12.2430  -31.5010 O.3   1532  TIP1521    -0.4105
   4758 H1          7.2430   12.2460  -31.3070 H     1532  TIP1521     0.2052
   4759 H2          6.0530   11.3210  -31.4480 H     1532  TIP1521     0.2052
   4760 OH2         9.6730   13.3700  -13.2150 O.3   1533  TIP1522    -0.4105
   4761 H1          9.3660   12.4760  -13.0670 H     1533  TIP1522     0.2052
   4762 H2          8.8840   13.8590  -13.4510 H     1533  TIP1522     0.2052
   4763 OH2       -12.8460   16.3270  -14.3570 O.3   1534  TIP1523    -0.4105
   4764 H1        -13.5400   16.1750  -15.0000 H     1534  TIP1523     0.2052
   4765 H2        -12.9350   15.6050  -13.7340 H     1534  TIP1523     0.2052
   4766 OH2         2.7790   24.4910  -10.7550 O.3   1535  TIP1524    -0.4105
   4767 H1          1.8240   24.4960  -10.6830 H     1535  TIP1524     0.2052
   4768 H2          3.0870   24.4120   -9.8520 H     1535  TIP1524     0.2052
   4769 OH2        33.8700   -5.1220   -2.4490 O.3   1536  TIP1525    -0.4105
   4770 H1         33.6800   -4.5620   -1.6960 H     1536  TIP1525     0.2052
   4771 H2         33.0610   -5.1200   -2.9600 H     1536  TIP1525     0.2052
   4772 OH2        12.2700  -24.4380    3.5040 O.3   1537  TIP1526    -0.4105
   4773 H1         12.2720  -24.1600    2.5880 H     1537  TIP1526     0.2052
   4774 H2         12.7220  -25.2810    3.4990 H     1537  TIP1526     0.2052
   4775 OH2        -3.0780    6.8750   14.9530 O.3   1538  TIP1527    -0.4105
   4776 H1         -3.0170    6.0560   14.4610 H     1538  TIP1527     0.2052
   4777 H2         -3.6030    6.6540   15.7230 H     1538  TIP1527     0.2052
   4778 OH2        -8.8660   -4.3640   -5.8610 O.3   1539  TIP1528    -0.4105
   4779 H1         -9.6340   -3.8610   -5.5920 H     1539  TIP1528     0.2052
   4780 H2         -8.9150   -4.3840   -6.8170 H     1539  TIP1528     0.2052
   4781 OH2       -12.0090    6.6930    4.5410 O.3   1540  TIP1529    -0.4105
   4782 H1        -11.7550    6.7440    5.4630 H     1540  TIP1529     0.2052
   4783 H2        -12.1740    5.7630    4.3890 H     1540  TIP1529     0.2052
   4784 OH2         9.0720   -8.9060    8.5560 O.3   1541  TIP1530    -0.4105
   4785 H1          8.1780   -9.0130    8.8800 H     1541  TIP1530     0.2052
   4786 H2          9.5310   -9.6930    8.8520 H     1541  TIP1530     0.2052
   4787 OH2         6.0340   -8.1610  -21.3410 O.3   1542  TIP1531    -0.4105
   4788 H1          6.3670   -8.0400  -22.2300 H     1542  TIP1531     0.2052
   4789 H2          6.2610   -9.0640  -21.1200 H     1542  TIP1531     0.2052
   4790 OH2        -0.9110   28.8120   14.5200 O.3   1543  TIP1532    -0.4105
   4791 H1         -0.0350   28.7960   14.1350 H     1543  TIP1532     0.2052
   4792 H2         -0.8620   29.4790   15.2040 H     1543  TIP1532     0.2052
   4793 OH2        16.3100  -12.5920   -1.8030 O.3   1544  TIP1533    -0.4105
   4794 H1         16.6050  -11.8420   -2.3200 H     1544  TIP1533     0.2052
   4795 H2         15.3950  -12.3990   -1.6000 H     1544  TIP1533     0.2052
   4796 OH2        18.2440    2.0440  -15.5850 O.3   1545  TIP1534    -0.4105
   4797 H1         17.3580    1.9200  -15.9240 H     1545  TIP1534     0.2052
   4798 H2         18.7680    2.2610  -16.3560 H     1545  TIP1534     0.2052
   4799 OH2         6.2280  -19.8580    5.0370 O.3   1546  TIP1535    -0.4105
   4800 H1          5.4250  -20.0740    5.5110 H     1546  TIP1535     0.2052
   4801 H2          6.8840  -19.7310    5.7220 H     1546  TIP1535     0.2052
   4802 OH2         5.9810   -5.8040   31.0830 O.3   1547  TIP1536    -0.4105
   4803 H1          6.1140   -6.1960   31.9460 H     1547  TIP1536     0.2052
   4804 H2          5.0320   -5.8190   30.9560 H     1547  TIP1536     0.2052
   4805 OH2        23.8100   -2.0830   10.1780 O.3   1548  TIP1537    -0.4105
   4806 H1         23.5490   -1.1620   10.1970 H     1548  TIP1537     0.2052
   4807 H2         23.9350   -2.2780    9.2490 H     1548  TIP1537     0.2052
   4808 OH2        13.6140   20.9430   26.5090 O.3   1549  TIP1538    -0.4105
   4809 H1         14.2940   20.6330   27.1080 H     1549  TIP1538     0.2052
   4810 H2         14.0930   21.2330   25.7330 H     1549  TIP1538     0.2052
   4811 OH2       -37.8820   -3.4990    9.0050 O.3   1550  TIP1539    -0.4105
   4812 H1        -38.6110   -3.3270    9.6010 H     1550  TIP1539     0.2052
   4813 H2        -37.2530   -2.8010    9.1890 H     1550  TIP1539     0.2052
   4814 OH2         1.3270   -8.9660  -20.0910 O.3   1551  TIP1540    -0.4105
   4815 H1          0.5100   -9.2110  -20.5240 H     1551  TIP1540     0.2052
   4816 H2          1.9710   -8.9230  -20.7980 H     1551  TIP1540     0.2052
   4817 OH2        -3.9330  -15.6020   31.8730 O.3   1552  TIP1541    -0.4105
   4818 H1         -3.4320  -15.9840   32.5930 H     1552  TIP1541     0.2052
   4819 H2         -4.5750  -16.2740   31.6440 H     1552  TIP1541     0.2052
   4820 OH2         4.5100   21.9380   19.3110 O.3   1553  TIP1542    -0.4105
   4821 H1          4.0650   22.7200   18.9840 H     1553  TIP1542     0.2052
   4822 H2          5.1010   21.6840   18.6020 H     1553  TIP1542     0.2052
   4823 OH2       -25.6200   28.3080   -0.3020 O.3   1554  TIP1543    -0.4105
   4824 H1        -25.9000   28.2400    0.6110 H     1554  TIP1543     0.2052
   4825 H2        -24.7510   28.7060   -0.2560 H     1554  TIP1543     0.2052
   4826 OH2       -13.1940   -7.3880   18.0660 O.3   1555  TIP1544    -0.4105
   4827 H1        -13.5710   -7.0590   17.2500 H     1555  TIP1544     0.2052
   4828 H2        -12.7430   -8.1940   17.8150 H     1555  TIP1544     0.2052
   4829 OH2       -12.6450  -15.4490  -23.4050 O.3   1556  TIP1545    -0.4105
   4830 H1        -12.9640  -14.7560  -22.8270 H     1556  TIP1545     0.2052
   4831 H2        -12.9270  -16.2610  -22.9850 H     1556  TIP1545     0.2052
   4832 OH2       -22.6100  -14.3490   15.5150 O.3   1557  TIP1546    -0.4105
   4833 H1        -23.2280  -14.9510   15.9300 H     1557  TIP1546     0.2052
   4834 H2        -21.7910  -14.8430   15.4670 H     1557  TIP1546     0.2052
   4835 OH2         1.0570  -23.7170  -11.9390 O.3   1558  TIP1547    -0.4105
   4836 H1          0.4080  -23.6730  -12.6410 H     1558  TIP1547     0.2052
   4837 H2          1.5360  -22.8910  -12.0030 H     1558  TIP1547     0.2052
   4838 OH2       -24.7380  -16.8090   -8.0720 O.3   1559  TIP1548    -0.4105
   4839 H1        -25.1380  -16.3030   -7.3660 H     1559  TIP1548     0.2052
   4840 H2        -23.8640  -16.4320   -8.1720 H     1559  TIP1548     0.2052
   4841 OH2        -0.2150   23.9570    7.6030 O.3   1560  TIP1549    -0.4105
   4842 H1          0.4750   23.7720    6.9650 H     1560  TIP1549     0.2052
   4843 H2         -0.8330   23.2330    7.5030 H     1560  TIP1549     0.2052
   4844 OH2        17.2170  -32.8900   -0.7330 O.3   1561  TIP1550    -0.4105
   4845 H1         17.8760  -33.5660   -0.8920 H     1561  TIP1550     0.2052
   4846 H2         16.4690  -33.3640   -0.3710 H     1561  TIP1550     0.2052
   4847 OH2        12.8540    1.8800   -4.1430 O.3   1562  TIP1551    -0.4105
   4848 H1         12.7820    0.9360   -4.2900 H     1562  TIP1551     0.2052
   4849 H2         13.7900    2.0320   -4.0160 H     1562  TIP1551     0.2052
   4850 OH2        11.3100   22.2060   17.9460 O.3   1563  TIP1552    -0.4105
   4851 H1         11.5650   21.3060   17.7390 H     1563  TIP1552     0.2052
   4852 H2         12.0140   22.7440   17.5830 H     1563  TIP1552     0.2052
   4853 OH2       -22.3340  -15.5920   -8.4940 O.3   1564  TIP1553    -0.4105
   4854 H1        -22.4860  -15.7050   -9.4330 H     1564  TIP1553     0.2052
   4855 H2        -21.6920  -14.8840   -8.4380 H     1564  TIP1553     0.2052
   4856 OH2        10.3030  -30.2740    9.6030 O.3   1565  TIP1554    -0.4105
   4857 H1         11.1810  -30.1470    9.2440 H     1565  TIP1554     0.2052
   4858 H2         10.1140  -29.4590   10.0680 H     1565  TIP1554     0.2052
   4859 OH2        12.0090   -0.7370  -18.1350 O.3   1566  TIP1555    -0.4105
   4860 H1         12.3910    0.0450  -17.7370 H     1566  TIP1555     0.2052
   4861 H2         11.9240   -0.5180  -19.0630 H     1566  TIP1555     0.2052
   4862 OH2       -10.1560   -2.4550  -25.5590 O.3   1567  TIP1556    -0.4105
   4863 H1         -9.8910   -1.5700  -25.3070 H     1567  TIP1556     0.2052
   4864 H2        -11.0070   -2.3380  -25.9830 H     1567  TIP1556     0.2052
   4865 OH2         7.3020   11.0200   -8.9390 O.3   1568  TIP1557    -0.4105
   4866 H1          8.2580   10.9640   -8.9480 H     1568  TIP1557     0.2052
   4867 H2          7.0250   10.3050   -8.3660 H     1568  TIP1557     0.2052
   4868 OH2       -32.3280   -7.1830   10.1070 O.3   1569  TIP1558    -0.4105
   4869 H1        -32.6040   -7.8760    9.5060 H     1569  TIP1558     0.2052
   4870 H2        -31.7390   -6.6360    9.5870 H     1569  TIP1558     0.2052
   4871 OH2       -17.5210  -15.1660   13.2980 O.3   1570  TIP1559    -0.4105
   4872 H1        -17.5580  -16.0680   12.9800 H     1570  TIP1559     0.2052
   4873 H2        -16.8310  -14.7560   12.7770 H     1570  TIP1559     0.2052
   4874 OH2       -37.2250  -11.2890   11.4920 O.3   1571  TIP1560    -0.4105
   4875 H1        -37.9090  -10.9200   12.0500 H     1571  TIP1560     0.2052
   4876 H2        -37.3090  -12.2360   11.6030 H     1571  TIP1560     0.2052
   4877 OH2        18.4980   -9.9340   -6.2360 O.3   1572  TIP1561    -0.4105
   4878 H1         18.8190  -10.7230   -6.6710 H     1572  TIP1561     0.2052
   4879 H2         17.6210   -9.8020   -6.5960 H     1572  TIP1561     0.2052
   4880 OH2        -6.5390   -1.5350  -14.7490 O.3   1573  TIP1562    -0.4105
   4881 H1         -7.0250   -2.3170  -14.4890 H     1573  TIP1562     0.2052
   4882 H2         -7.1820   -0.9940  -15.2070 H     1573  TIP1562     0.2052
   4883 OH2        -4.1730  -18.6670    4.3880 O.3   1574  TIP1563    -0.4105
   4884 H1         -3.8720  -18.6260    3.4810 H     1574  TIP1563     0.2052
   4885 H2         -5.0050  -19.1390    4.3450 H     1574  TIP1563     0.2052
   4886 OH2        10.5560   -3.3830   27.4140 O.3   1575  TIP1564    -0.4105
   4887 H1         10.9980   -2.9960   28.1700 H     1575  TIP1564     0.2052
   4888 H2          9.9510   -4.0220   27.7910 H     1575  TIP1564     0.2052
   4889 OH2         5.9330   17.2070   -2.8190 O.3   1576  TIP1565    -0.4105
   4890 H1          6.7070   16.6460   -2.8580 H     1576  TIP1565     0.2052
   4891 H2          6.2210   18.0410   -3.1900 H     1576  TIP1565     0.2052
   4892 OH2        13.0470  -20.3780   15.5050 O.3   1577  TIP1566    -0.4105
   4893 H1         12.3850  -20.8090   14.9640 H     1577  TIP1566     0.2052
   4894 H2         12.6700  -19.5210   15.7080 H     1577  TIP1566     0.2052
   4895 OH2       -15.6220  -13.6720   -4.6150 O.3   1578  TIP1567    -0.4105
   4896 H1        -15.2090  -12.8370   -4.8360 H     1578  TIP1567     0.2052
   4897 H2        -16.3780  -13.7290   -5.1990 H     1578  TIP1567     0.2052
   4898 OH2       -22.0080   -8.3510  -13.2120 O.3   1579  TIP1568    -0.4105
   4899 H1        -22.9350   -8.5770  -13.1330 H     1579  TIP1568     0.2052
   4900 H2        -22.0010   -7.3980  -13.3050 H     1579  TIP1568     0.2052
   4901 OH2        -1.0140  -20.6790   23.6070 O.3   1580  TIP1569    -0.4105
   4902 H1         -0.4100  -20.3350   24.2650 H     1580  TIP1569     0.2052
   4903 H2         -1.0970  -21.6080   23.8210 H     1580  TIP1569     0.2052
   4904 OH2       -14.9400  -13.5860  -15.6590 O.3   1581  TIP1570    -0.4105
   4905 H1        -14.2840  -13.7170  -16.3440 H     1581  TIP1570     0.2052
   4906 H2        -14.4770  -13.7790  -14.8440 H     1581  TIP1570     0.2052
   4907 OH2       -17.2420    3.7340   -2.0560 O.3   1582  TIP1571    -0.4105
   4908 H1        -17.7000    4.5700   -2.1390 H     1582  TIP1571     0.2052
   4909 H2        -17.1710    3.5920   -1.1120 H     1582  TIP1571     0.2052
   4910 OH2        18.6000  -24.0130   -5.5490 O.3   1583  TIP1572    -0.4105
   4911 H1         19.4340  -24.1310   -6.0060 H     1583  TIP1572     0.2052
   4912 H2         18.0710  -24.7640   -5.8190 H     1583  TIP1572     0.2052
   4913 OH2       -22.5750   -5.7950   16.8740 O.3   1584  TIP1573    -0.4105
   4914 H1        -22.9860   -5.1190   17.4130 H     1584  TIP1573     0.2052
   4915 H2        -23.2780   -6.4190   16.6930 H     1584  TIP1573     0.2052
   4916 OH2        19.9270   -7.2710  -12.6740 O.3   1585  TIP1574    -0.4105
   4917 H1         19.5290   -6.6120  -12.1050 H     1585  TIP1574     0.2052
   4918 H2         20.2970   -7.9170  -12.0710 H     1585  TIP1574     0.2052
   4919 OH2         0.0780   13.2720   -4.4590 O.3   1586  TIP1575    -0.4105
   4920 H1         -0.0320   12.3230   -4.3970 H     1586  TIP1575     0.2052
   4921 H2         -0.6150   13.5550   -5.0560 H     1586  TIP1575     0.2052
   4922 OH2         9.8680    4.4990    6.1760 O.3   1587  TIP1576    -0.4105
   4923 H1          9.5400    5.2290    6.7000 H     1587  TIP1576     0.2052
   4924 H2          9.3000    4.4840    5.4050 H     1587  TIP1576     0.2052
   4925 OH2        17.2720  -17.9820    1.8770 O.3   1588  TIP1577    -0.4105
   4926 H1         17.2630  -17.3570    1.1520 H     1588  TIP1577     0.2052
   4927 H2         17.1740  -17.4410    2.6610 H     1588  TIP1577     0.2052
   4928 OH2        32.9070    8.7420   -3.2960 O.3   1589  TIP1578    -0.4105
   4929 H1         32.3730    9.3810   -2.8230 H     1589  TIP1578     0.2052
   4930 H2         32.3290    8.4100   -3.9840 H     1589  TIP1578     0.2052
   4931 OH2        11.9960  -20.2920   -4.4820 O.3   1590  TIP1579    -0.4105
   4932 H1         12.4990  -21.0320   -4.8230 H     1590  TIP1579     0.2052
   4933 H2         11.4350  -20.6740   -3.8070 H     1590  TIP1579     0.2052
   4934 OH2        -6.1100   -2.4900  -21.3340 O.3   1591  TIP1580    -0.4105
   4935 H1         -7.0300   -2.5970  -21.5760 H     1591  TIP1580     0.2052
   4936 H2         -5.6240   -2.8940  -22.0530 H     1591  TIP1580     0.2052
   4937 OH2         4.2720  -22.9220  -11.7220 O.3   1592  TIP1581    -0.4105
   4938 H1          4.5610  -23.5200  -11.0330 H     1592  TIP1581     0.2052
   4939 H2          4.5150  -22.0530  -11.4040 H     1592  TIP1581     0.2052
   4940 OH2       -20.5480   12.4150  -10.9700 O.3   1593  TIP1582    -0.4105
   4941 H1        -20.8980   12.9660  -10.2700 H     1593  TIP1582     0.2052
   4942 H2        -20.6750   11.5200  -10.6560 H     1593  TIP1582     0.2052
   4943 OH2       -11.8030   26.0040   -6.6110 O.3   1594  TIP1583    -0.4105
   4944 H1        -11.9990   25.7240   -5.7170 H     1594  TIP1583     0.2052
   4945 H2        -11.8580   25.2020   -7.1310 H     1594  TIP1583     0.2052
   4946 OH2        -7.6310    9.7100    1.9630 O.3   1595  TIP1584    -0.4105
   4947 H1         -7.5590    9.0370    2.6400 H     1595  TIP1584     0.2052
   4948 H2         -8.2960    9.3740    1.3610 H     1595  TIP1584     0.2052
   4949 OH2        15.6450   11.5290  -15.5300 O.3   1596  TIP1585    -0.4105
   4950 H1         14.8640   11.1370  -15.9210 H     1596  TIP1585     0.2052
   4951 H2         16.3690   10.9880  -15.8440 H     1596  TIP1585     0.2052
   4952 OH2        -9.6390  -16.6180   13.6770 O.3   1597  TIP1586    -0.4105
   4953 H1        -10.2500  -16.4900   14.4030 H     1597  TIP1586     0.2052
   4954 H2        -10.1970  -16.6920   12.9030 H     1597  TIP1586     0.2052
   4955 OH2        -1.0200    1.6360  -13.7380 O.3   1598  TIP1587    -0.4105
   4956 H1         -0.4050    2.3540  -13.5850 H     1598  TIP1587     0.2052
   4957 H2         -0.6100    0.8770  -13.3220 H     1598  TIP1587     0.2052
   4958 OH2       -20.0390  -11.2000    7.7660 O.3   1599  TIP1588    -0.4105
   4959 H1        -19.7570  -11.3150    6.8590 H     1599  TIP1588     0.2052
   4960 H2        -20.9620  -10.9530    7.7000 H     1599  TIP1588     0.2052
   4961 OH2         6.3670    5.9490   33.8550 O.3   1600  TIP1589    -0.4105
   4962 H1          6.8450    6.2890   33.0980 H     1600  TIP1589     0.2052
   4963 H2          5.9130    5.1740   33.5240 H     1600  TIP1589     0.2052
   4964 OH2       -15.0950  -24.0060  -27.2800 O.3   1601  TIP1590    -0.4105
   4965 H1        -15.6980  -23.2690  -27.1810 H     1601  TIP1590     0.2052
   4966 H2        -15.1420  -24.2320  -28.2090 H     1601  TIP1590     0.2052
   4967 OH2        14.5730   18.5680  -14.5160 O.3   1602  TIP1591    -0.4105
   4968 H1         15.3520   19.0160  -14.1860 H     1602  TIP1591     0.2052
   4969 H2         14.2610   19.1250  -15.2290 H     1602  TIP1591     0.2052
   4970 OH2        -3.6540   10.3430  -10.7580 O.3   1603  TIP1592    -0.4105
   4971 H1         -4.0330   11.0930  -10.2990 H     1603  TIP1592     0.2052
   4972 H2         -3.7150    9.6220  -10.1320 H     1603  TIP1592     0.2052
   4973 OH2       -23.7350    0.2490  -11.6430 O.3   1604  TIP1593    -0.4105
   4974 H1        -23.2840   -0.0060  -12.4480 H     1604  TIP1593     0.2052
   4975 H2        -23.0640    0.6890  -11.1210 H     1604  TIP1593     0.2052
   4976 OH2         5.9270   -3.4260  -20.2000 O.3   1605  TIP1594    -0.4105
   4977 H1          5.6320   -3.7610  -19.3540 H     1605  TIP1594     0.2052
   4978 H2          6.5140   -4.1030  -20.5360 H     1605  TIP1594     0.2052
   4979 OH2        27.4390  -14.8640   -4.2420 O.3   1606  TIP1595    -0.4105
   4980 H1         26.5650  -14.4740   -4.2540 H     1606  TIP1595     0.2052
   4981 H2         27.7310  -14.7700   -3.3350 H     1606  TIP1595     0.2052
   4982 OH2         2.6710   -1.2670   20.2190 O.3   1607  TIP1596    -0.4105
   4983 H1          2.6560   -1.8750   19.4790 H     1607  TIP1596     0.2052
   4984 H2          3.3350   -1.6240   20.8090 H     1607  TIP1596     0.2052
   4985 OH2         2.9280    9.7290   18.1010 O.3   1608  TIP1597    -0.4105
   4986 H1          2.5850   10.6140   17.9800 H     1608  TIP1597     0.2052
   4987 H2          3.6280    9.8290   18.7470 H     1608  TIP1597     0.2052
   4988 OH2         2.2970   -1.8440   13.7160 O.3   1609  TIP1598    -0.4105
   4989 H1          2.8710   -1.1130   13.9430 H     1609  TIP1598     0.2052
   4990 H2          1.9720   -1.6310   12.8400 H     1609  TIP1598     0.2052
   4991 OH2         1.9670   25.5510   22.5660 O.3   1610  TIP1599    -0.4105
   4992 H1          2.5850   24.8240   22.6290 H     1610  TIP1599     0.2052
   4993 H2          2.1830   25.9800   21.7380 H     1610  TIP1599     0.2052
   4994 OH2        11.6470  -19.4230    7.7720 O.3   1611  TIP1600    -0.4105
   4995 H1         12.2920  -19.8350    7.1970 H     1611  TIP1600     0.2052
   4996 H2         11.0160  -20.1180    7.9600 H     1611  TIP1600     0.2052
   4997 OH2         7.0660    4.5590   30.6890 O.3   1612  TIP1601    -0.4105
   4998 H1          7.9960    4.6490   30.8980 H     1612  TIP1601     0.2052
   4999 H2          6.6870    5.4080   30.9120 H     1612  TIP1601     0.2052
   5000 OH2        24.5480   16.0000    3.4750 O.3   1613  TIP1602    -0.4105
   5001 H1         23.9710   15.3490    3.8760 H     1613  TIP1602     0.2052
   5002 H2         24.0330   16.3660    2.7570 H     1613  TIP1602     0.2052
   5003 OH2       -28.3730   -4.4150   14.4880 O.3   1614  TIP1603    -0.4105
   5004 H1        -28.6600   -5.2440   14.8720 H     1614  TIP1603     0.2052
   5005 H2        -27.6480   -4.1310   15.0440 H     1614  TIP1603     0.2052
   5006 OH2        -8.0670  -20.6270   21.5990 O.3   1615  TIP1604    -0.4105
   5007 H1         -8.8890  -20.4750   21.1330 H     1615  TIP1604     0.2052
   5008 H2         -7.4240  -20.7810   20.9070 H     1615  TIP1604     0.2052
   5009 OH2        20.3250   -3.4670    9.4140 O.3   1616  TIP1605    -0.4105
   5010 H1         20.8920   -4.0840    9.8760 H     1616  TIP1605     0.2052
   5011 H2         20.6070   -2.6050    9.7210 H     1616  TIP1605     0.2052
   5012 OH2         6.5960  -21.1340   -2.4900 O.3   1617  TIP1606    -0.4105
   5013 H1          7.5040  -21.4220   -2.3970 H     1617  TIP1606     0.2052
   5014 H2          6.6570  -20.1920   -2.6470 H     1617  TIP1606     0.2052
   5015 OH2        17.6760  -17.6580   11.8530 O.3   1618  TIP1607    -0.4105
   5016 H1         16.8120  -17.3910   11.5390 H     1618  TIP1607     0.2052
   5017 H2         18.2860  -17.3150   11.2000 H     1618  TIP1607     0.2052
   5018 OH2        -6.0710  -13.0330  -28.0140 O.3   1619  TIP1608    -0.4105
   5019 H1         -5.3570  -13.0970  -28.6490 H     1619  TIP1608     0.2052
   5020 H2         -6.2650  -13.9400  -27.7790 H     1619  TIP1608     0.2052
   5021 OH2       -25.8360   -7.6740   13.2670 O.3   1620  TIP1609    -0.4105
   5022 H1        -25.8390   -8.2660   14.0190 H     1620  TIP1609     0.2052
   5023 H2        -26.6990   -7.2610   13.2840 H     1620  TIP1609     0.2052
   5024 OH2       -28.1050    6.9630    3.7840 O.3   1621  TIP1610    -0.4105
   5025 H1        -28.5470    6.8310    2.9450 H     1621  TIP1610     0.2052
   5026 H2        -27.2970    6.4550    3.7120 H     1621  TIP1610     0.2052
   5027 OH2        15.1400   -0.3220   -8.7420 O.3   1622  TIP1611    -0.4105
   5028 H1         15.9170   -0.6090   -8.2630 H     1622  TIP1611     0.2052
   5029 H2         14.9720    0.5630   -8.4190 H     1622  TIP1611     0.2052
   5030 OH2        21.4090  -24.2890   -5.1270 O.3   1623  TIP1612    -0.4105
   5031 H1         21.3740  -25.2050   -5.4010 H     1623  TIP1612     0.2052
   5032 H2         22.3290  -24.1400   -4.9050 H     1623  TIP1612     0.2052
   5033 OH2        24.9580   -2.9990    4.7450 O.3   1624  TIP1613    -0.4105
   5034 H1         24.6280   -2.8120    5.6240 H     1624  TIP1613     0.2052
   5035 H2         25.4050   -3.8410    4.8310 H     1624  TIP1613     0.2052
   5036 OH2       -25.7910   28.7650    2.5760 O.3   1625  TIP1614    -0.4105
   5037 H1        -25.2970   29.5780    2.4700 H     1625  TIP1614     0.2052
   5038 H2        -26.6910   28.9980    2.3480 H     1625  TIP1614     0.2052
   5039 OH2         4.0410   10.9250  -30.0780 O.3   1626  TIP1615    -0.4105
   5040 H1          3.5500   11.2910  -29.3430 H     1626  TIP1615     0.2052
   5041 H2          3.9210   11.5580  -30.7860 H     1626  TIP1615     0.2052
   5042 OH2        17.5330   -7.4590    9.0780 O.3   1627  TIP1616    -0.4105
   5043 H1         18.1380   -7.1130    8.4220 H     1627  TIP1616     0.2052
   5044 H2         17.7090   -8.4000    9.0950 H     1627  TIP1616     0.2052
   5045 OH2        -5.2880   18.2250  -21.8010 O.3   1628  TIP1617    -0.4105
   5046 H1         -4.5810   18.4220  -22.4160 H     1628  TIP1617     0.2052
   5047 H2         -4.9770   17.4630  -21.3140 H     1628  TIP1617     0.2052
   5048 OH2       -20.3820   -1.0690   -1.3330 O.3   1629  TIP1618    -0.4105
   5049 H1        -19.8850   -0.3130   -1.0210 H     1629  TIP1618     0.2052
   5050 H2        -20.9680   -0.7120   -2.0010 H     1629  TIP1618     0.2052
   5051 OH2         5.2180    4.4210    7.5710 O.3   1630  TIP1619    -0.4105
   5052 H1          5.9960    3.9530    7.8740 H     1630  TIP1619     0.2052
   5053 H2          5.3670    4.5550    6.6350 H     1630  TIP1619     0.2052
   5054 OH2       -12.8100   -2.7460  -26.5290 O.3   1631  TIP1620    -0.4105
   5055 H1        -13.4120   -2.9030  -27.2560 H     1631  TIP1620     0.2052
   5056 H2        -12.6260   -3.6170  -26.1780 H     1631  TIP1620     0.2052
   5057 OH2       -11.9740  -16.8990  -11.7740 O.3   1632  TIP1621    -0.4105
   5058 H1        -12.6630  -17.4130  -11.3530 H     1632  TIP1621     0.2052
   5059 H2        -12.2250  -16.8710  -12.6980 H     1632  TIP1621     0.2052
   5060 OH2         6.6130   -0.3600   12.3390 O.3   1633  TIP1622    -0.4105
   5061 H1          6.3560   -1.2300   12.0330 H     1633  TIP1622     0.2052
   5062 H2          6.2730   -0.3090   13.2320 H     1633  TIP1622     0.2052
   5063 OH2         9.0890    0.4640  -18.3140 O.3   1634  TIP1623    -0.4105
   5064 H1          8.8340   -0.1090  -17.5910 H     1634  TIP1623     0.2052
   5065 H2          9.1570   -0.1190  -19.0700 H     1634  TIP1623     0.2052
   5066 OH2        16.4350  -21.0320    6.8980 O.3   1635  TIP1624    -0.4105
   5067 H1         17.1440  -21.6740    6.9360 H     1635  TIP1624     0.2052
   5068 H2         16.3400  -20.7250    7.7990 H     1635  TIP1624     0.2052
   5069 OH2        10.7780    4.9970   24.0840 O.3   1636  TIP1625    -0.4105
   5070 H1         11.4610    4.6590   23.5050 H     1636  TIP1625     0.2052
   5071 H2         11.1640    5.7780   24.4820 H     1636  TIP1625     0.2052
   5072 OH2         8.5480   12.3210    1.3780 O.3   1637  TIP1626    -0.4105
   5073 H1          7.8440   12.9660    1.4490 H     1637  TIP1626     0.2052
   5074 H2          8.4340   11.7580    2.1440 H     1637  TIP1626     0.2052
   5075 OH2        -7.8820   14.6370   -4.6580 O.3   1638  TIP1627    -0.4105
   5076 H1         -8.1380   13.7510   -4.9140 H     1638  TIP1627     0.2052
   5077 H2         -8.3910   14.8160   -3.8680 H     1638  TIP1627     0.2052
   5078 OH2       -13.8170  -17.3210   23.8500 O.3   1639  TIP1628    -0.4105
   5079 H1        -13.2470  -17.7050   24.5160 H     1639  TIP1628     0.2052
   5080 H2        -14.5640  -16.9780   24.3410 H     1639  TIP1628     0.2052
   5081 OH2         7.8770   -5.5330   13.2840 O.3   1640  TIP1629    -0.4105
   5082 H1          8.0500   -4.6350   13.5670 H     1640  TIP1629     0.2052
   5083 H2          8.2640   -5.5870   12.4100 H     1640  TIP1629     0.2052
   5084 OH2         5.1590  -27.4980   12.1480 O.3   1641  TIP1630    -0.4105
   5085 H1          6.0790  -27.5230   11.8850 H     1641  TIP1630     0.2052
   5086 H2          5.1180  -28.0490   12.9300 H     1641  TIP1630     0.2052
   5087 OH2       -34.9800  -10.0900    1.7220 O.3   1642  TIP1631    -0.4105
   5088 H1        -35.5710  -10.1570    0.9720 H     1642  TIP1631     0.2052
   5089 H2        -35.1870  -10.8560    2.2590 H     1642  TIP1631     0.2052
   5090 OH2       -18.4260   -0.4850  -13.6040 O.3   1643  TIP1632    -0.4105
   5091 H1        -17.6820   -1.0640  -13.7720 H     1643  TIP1632     0.2052
   5092 H2        -18.3980    0.1540  -14.3150 H     1643  TIP1632     0.2052
   5093 OH2        18.9640   -6.0840   -6.7340 O.3   1644  TIP1633    -0.4105
   5094 H1         19.4450   -6.8740   -6.9790 H     1644  TIP1633     0.2052
   5095 H2         19.4400   -5.3710   -7.1600 H     1644  TIP1633     0.2052
   5096 OH2         7.5130  -13.6160   22.8270 O.3   1645  TIP1634    -0.4105
   5097 H1          8.1730  -13.5800   22.1350 H     1645  TIP1634     0.2052
   5098 H2          7.2860  -12.7000   22.9890 H     1645  TIP1634     0.2052
   5099 OH2         1.6640   28.9510   13.4690 O.3   1646  TIP1635    -0.4105
   5100 H1          2.0710   28.8240   12.6120 H     1646  TIP1635     0.2052
   5101 H2          1.5680   29.9000   13.5510 H     1646  TIP1635     0.2052
   5102 OH2       -27.3010  -18.6340  -12.3360 O.3   1647  TIP1636    -0.4105
   5103 H1        -27.2490  -18.1190  -11.5310 H     1647  TIP1636     0.2052
   5104 H2        -27.8220  -18.0950  -12.9320 H     1647  TIP1636     0.2052
   5105 OH2       -18.9820   -9.4120   -6.2070 O.3   1648  TIP1637    -0.4105
   5106 H1        -19.1890   -9.4240   -5.2720 H     1648  TIP1637     0.2052
   5107 H2        -19.0020   -8.4850   -6.4450 H     1648  TIP1637     0.2052
   5108 OH2       -29.9160   -6.1910    5.5930 O.3   1649  TIP1638    -0.4105
   5109 H1        -30.4940   -5.8710    6.2850 H     1649  TIP1638     0.2052
   5110 H2        -30.5090   -6.4640    4.8930 H     1649  TIP1638     0.2052
   5111 OH2        13.1480  -26.6410    1.1220 O.3   1650  TIP1639    -0.4105
   5112 H1         13.3760  -26.6370    2.0520 H     1650  TIP1639     0.2052
   5113 H2         13.3600  -27.5260    0.8270 H     1650  TIP1639     0.2052
   5114 OH2       -10.5290   -8.9460    9.0690 O.3   1651  TIP1640    -0.4105
   5115 H1        -10.5650   -7.9900    9.0350 H     1651  TIP1640     0.2052
   5116 H2        -10.7090   -9.2250    8.1710 H     1651  TIP1640     0.2052
   5117 OH2         6.6270   -3.5030  -15.1820 O.3   1652  TIP1641    -0.4105
   5118 H1          5.9280   -3.9860  -14.7420 H     1652  TIP1641     0.2052
   5119 H2          7.1340   -4.1760  -15.6370 H     1652  TIP1641     0.2052
   5120 OH2        24.3810  -15.5380   -2.8000 O.3   1653  TIP1642    -0.4105
   5121 H1         25.0690  -16.1210   -2.4790 H     1653  TIP1642     0.2052
   5122 H2         24.3450  -15.7040   -3.7420 H     1653  TIP1642     0.2052
   5123 OH2         1.3360   20.0900    1.0750 O.3   1654  TIP1643    -0.4105
   5124 H1          1.6400   19.5730    0.3290 H     1654  TIP1643     0.2052
   5125 H2          0.6690   19.5420    1.4910 H     1654  TIP1643     0.2052
   5126 OH2         1.9840  -16.1800   31.2850 O.3   1655  TIP1644    -0.4105
   5127 H1          2.8740  -16.1530   30.9330 H     1655  TIP1644     0.2052
   5128 H2          1.5310  -16.8260   30.7430 H     1655  TIP1644     0.2052
   5129 OH2        -4.3600   16.0460   16.2080 O.3   1656  TIP1645    -0.4105
   5130 H1         -4.7990   15.9880   15.3600 H     1656  TIP1645     0.2052
   5131 H2         -3.6730   15.3800   16.1680 H     1656  TIP1645     0.2052
   5132 OH2       -11.8150   -8.0670  -25.1470 O.3   1657  TIP1646    -0.4105
   5133 H1        -12.5040   -8.7310  -25.1250 H     1657  TIP1646     0.2052
   5134 H2        -11.2170   -8.3650  -25.8330 H     1657  TIP1646     0.2052
   5135 OH2         1.4640   -4.1410   -4.9140 O.3   1658  TIP1647    -0.4105
   5136 H1          2.0540   -3.4420   -4.6340 H     1658  TIP1647     0.2052
   5137 H2          2.0180   -4.7350   -5.4190 H     1658  TIP1647     0.2052
   5138 OH2        25.8490   -9.8080   -7.4810 O.3   1659  TIP1648    -0.4105
   5139 H1         26.7880   -9.8370   -7.6660 H     1659  TIP1648     0.2052
   5140 H2         25.4850  -10.5390   -7.9810 H     1659  TIP1648     0.2052
   5141 OH2        22.3410  -27.3790    0.1560 O.3   1660  TIP1649    -0.4105
   5142 H1         22.1570  -28.1610    0.6750 H     1660  TIP1649     0.2052
   5143 H2         22.7540  -26.7740    0.7710 H     1660  TIP1649     0.2052
   5144 OH2        14.3060   -8.3570   -0.9040 O.3   1661  TIP1650    -0.4105
   5145 H1         13.5620   -8.1890   -0.3260 H     1661  TIP1650     0.2052
   5146 H2         14.0620   -9.1470   -1.3860 H     1661  TIP1650     0.2052
   5147 OH2         3.8890  -13.7240  -13.1780 O.3   1662  TIP1651    -0.4105
   5148 H1          4.1520  -14.6010  -13.4560 H     1662  TIP1651     0.2052
   5149 H2          4.5540  -13.4640  -12.5410 H     1662  TIP1651     0.2052
   5150 OH2        -9.6650  -17.6240  -28.3660 O.3   1663  TIP1652    -0.4105
   5151 H1        -10.2930  -18.3460  -28.4030 H     1663  TIP1652     0.2052
   5152 H2         -8.8330  -18.0410  -28.1460 H     1663  TIP1652     0.2052
   5153 OH2       -17.2260  -20.5260  -16.1400 O.3   1664  TIP1653    -0.4105
   5154 H1        -16.6740  -20.6100  -15.3640 H     1664  TIP1653     0.2052
   5155 H2        -17.7940  -19.7790  -15.9520 H     1664  TIP1653     0.2052
   5156 OH2         4.6540    3.8460   32.9270 O.3   1665  TIP1654    -0.4105
   5157 H1          4.3780    3.1300   32.3540 H     1665  TIP1654     0.2052
   5158 H2          3.8420    4.1630   33.3220 H     1665  TIP1654     0.2052
   5159 OH2       -12.2320  -20.0290  -13.7070 O.3   1666  TIP1655    -0.4105
   5160 H1        -11.9400  -20.4780  -12.9140 H     1666  TIP1655     0.2052
   5161 H2        -11.9650  -20.6070  -14.4220 H     1666  TIP1655     0.2052
   5162 OH2        14.3970   16.8810  -21.7240 O.3   1667  TIP1656    -0.4105
   5163 H1         13.5110   16.5410  -21.8490 H     1667  TIP1656     0.2052
   5164 H2         14.7350   16.4000  -20.9690 H     1667  TIP1656     0.2052
   5165 OH2       -13.4210    8.8750   -1.2090 O.3   1668  TIP1657    -0.4105
   5166 H1        -13.4880    9.6540   -0.6580 H     1668  TIP1657     0.2052
   5167 H2        -14.1760    8.3410   -0.9630 H     1668  TIP1657     0.2052
   5168 OH2        12.3620  -28.3410   -5.2110 O.3   1669  TIP1658    -0.4105
   5169 H1         11.4630  -28.3500   -5.5400 H     1669  TIP1658     0.2052
   5170 H2         12.8130  -29.0100   -5.7260 H     1669  TIP1658     0.2052
   5171 OH2        -5.8250   16.0380  -26.5050 O.3   1670  TIP1659    -0.4105
   5172 H1         -6.5110   16.0060  -25.8380 H     1670  TIP1659     0.2052
   5173 H2         -5.0140   15.8730  -26.0240 H     1670  TIP1659     0.2052
   5174 OH2         3.1890   17.9590   13.7590 O.3   1671  TIP1660    -0.4105
   5175 H1          2.5280   18.3920   14.2990 H     1671  TIP1660     0.2052
   5176 H2          3.5030   18.6440   13.1690 H     1671  TIP1660     0.2052
   5177 OH2        -2.1950    1.2180   -0.9670 O.3   1672  TIP1661    -0.4105
   5178 H1         -2.2990    0.2680   -0.9050 H     1672  TIP1661     0.2052
   5179 H2         -1.3540    1.3950   -0.5440 H     1672  TIP1661     0.2052
   5180 OH2        13.7750  -32.5460    3.3780 O.3   1673  TIP1662    -0.4105
   5181 H1         13.3540  -32.4180    2.5280 H     1673  TIP1662     0.2052
   5182 H2         14.7080  -32.6150    3.1760 H     1673  TIP1662     0.2052
   5183 OH2        10.2560  -15.6200   14.7130 O.3   1674  TIP1663    -0.4105
   5184 H1         10.0210  -16.1750   15.4570 H     1674  TIP1663     0.2052
   5185 H2         10.3790  -14.7500   15.0920 H     1674  TIP1663     0.2052
   5186 OH2        19.7910   11.6750  -22.5390 O.3   1675  TIP1664    -0.4105
   5187 H1         20.6050   11.3030  -22.8780 H     1675  TIP1664     0.2052
   5188 H2         19.7570   12.5570  -22.9090 H     1675  TIP1664     0.2052
   5189 OH2        24.3860  -17.5290    4.5150 O.3   1676  TIP1665    -0.4105
   5190 H1         23.5990  -18.0610    4.6290 H     1676  TIP1665     0.2052
   5191 H2         24.1840  -16.7030    4.9550 H     1676  TIP1665     0.2052
   5192 OH2       -10.2540   11.8720   16.7220 O.3   1677  TIP1666    -0.4105
   5193 H1         -9.5970   11.6950   17.3950 H     1677  TIP1666     0.2052
   5194 H2        -10.4740   12.7960   16.8380 H     1677  TIP1666     0.2052
   5195 OH2         7.4750   11.3370   14.5710 O.3   1678  TIP1667    -0.4105
   5196 H1          7.6560   11.8360   13.7740 H     1678  TIP1667     0.2052
   5197 H2          7.6340   10.4260   14.3240 H     1678  TIP1667     0.2052
   5198 OH2        16.3570    0.4180  -17.1360 O.3   1679  TIP1668    -0.4105
   5199 H1         15.8350    0.2920  -17.9280 H     1679  TIP1668     0.2052
   5200 H2         16.3920   -0.4480  -16.7310 H     1679  TIP1668     0.2052
   5201 OH2        26.0140   -6.4350   -2.4860 O.3   1680  TIP1669    -0.4105
   5202 H1         25.2730   -6.2880   -3.0740 H     1680  TIP1669     0.2052
   5203 H2         26.0420   -7.3840   -2.3690 H     1680  TIP1669     0.2052
   5204 OH2       -21.3450   19.7860   11.3070 O.3   1681  TIP1670    -0.4105
   5205 H1        -21.6960   20.4230   11.9300 H     1681  TIP1670     0.2052
   5206 H2        -21.7640   20.0070   10.4750 H     1681  TIP1670     0.2052
   5207 OH2       -24.8800   17.1080    5.1750 O.3   1682  TIP1671    -0.4105
   5208 H1        -25.5900   16.8010    4.6110 H     1682  TIP1671     0.2052
   5209 H2        -24.1410   16.5370    4.9630 H     1682  TIP1671     0.2052
   5210 OH2        13.4460   -6.6740    3.4060 O.3   1683  TIP1672    -0.4105
   5211 H1         13.9200   -5.8460    3.3240 H     1683  TIP1672     0.2052
   5212 H2         12.7110   -6.4740    3.9850 H     1683  TIP1672     0.2052
   5213 OH2       -15.9920    0.1410   14.3940 O.3   1684  TIP1673    -0.4105
   5214 H1        -16.4410   -0.5260   13.8740 H     1684  TIP1673     0.2052
   5215 H2        -16.1820    0.9640   13.9430 H     1684  TIP1673     0.2052
   5216 OH2       -10.4370  -17.2650   23.2580 O.3   1685  TIP1674    -0.4105
   5217 H1         -9.7250  -17.8330   23.5520 H     1685  TIP1674     0.2052
   5218 H2        -11.1970  -17.8440   23.1990 H     1685  TIP1674     0.2052
   5219 OH2        -5.0230    2.8220   28.6520 O.3   1686  TIP1675    -0.4105
   5220 H1         -4.3610    2.9840   27.9800 H     1686  TIP1675     0.2052
   5221 H2         -4.6050    2.2090   29.2570 H     1686  TIP1675     0.2052
   5222 OH2        -7.4940   18.6420    1.6390 O.3   1687  TIP1676    -0.4105
   5223 H1         -7.3620   19.5900    1.6380 H     1687  TIP1676     0.2052
   5224 H2         -8.3940   18.5240    1.3360 H     1687  TIP1676     0.2052
   5225 OH2        14.3480   -6.0420  -18.8440 O.3   1688  TIP1677    -0.4105
   5226 H1         14.3660   -5.4990  -18.0560 H     1688  TIP1677     0.2052
   5227 H2         14.8040   -6.8450  -18.5930 H     1688  TIP1677     0.2052
   5228 OH2        14.8000    8.2260   25.3200 O.3   1689  TIP1678    -0.4105
   5229 H1         14.9060    8.3040   26.2690 H     1689  TIP1678     0.2052
   5230 H2         15.4320    8.8450   24.9570 H     1689  TIP1678     0.2052
   5231 OH2        12.9880  -27.0950    4.0320 O.3   1690  TIP1679    -0.4105
   5232 H1         13.4460  -26.9650    4.8630 H     1690  TIP1679     0.2052
   5233 H2         12.8030  -28.0330    4.0050 H     1690  TIP1679     0.2052
   5234 OH2        11.0120   12.8360   21.3120 O.3   1691  TIP1680    -0.4105
   5235 H1         11.2340   12.0600   21.8260 H     1691  TIP1680     0.2052
   5236 H2         10.4480   13.3520   21.8880 H     1691  TIP1680     0.2052
   5237 OH2        -2.1290   -3.3920  -10.0790 O.3   1692  TIP1681    -0.4105
   5238 H1         -1.8680   -3.3710   -9.1580 H     1692  TIP1681     0.2052
   5239 H2         -1.5750   -4.0670  -10.4700 H     1692  TIP1681     0.2052
   5240 OH2        -3.2350  -16.0750   23.6970 O.3   1693  TIP1682    -0.4105
   5241 H1         -2.3450  -16.1160   23.3470 H     1693  TIP1682     0.2052
   5242 H2         -3.1620  -15.5240   24.4760 H     1693  TIP1682     0.2052
   5243 OH2        -7.7500  -23.8700  -11.3460 O.3   1694  TIP1683    -0.4105
   5244 H1         -7.9350  -24.7970  -11.1910 H     1694  TIP1683     0.2052
   5245 H2         -8.6050  -23.4820  -11.5320 H     1694  TIP1683     0.2052
   5246 OH2        -4.6760  -22.3120  -20.6000 O.3   1695  TIP1684    -0.4105
   5247 H1         -5.5620  -22.6000  -20.3780 H     1695  TIP1684     0.2052
   5248 H2         -4.1250  -22.6710  -19.9050 H     1695  TIP1684     0.2052
   5249 OH2         7.0330   13.6450  -21.3050 O.3   1696  TIP1685    -0.4105
   5250 H1          7.0370   13.2750  -22.1880 H     1696  TIP1685     0.2052
   5251 H2          6.1050   13.7280  -21.0840 H     1696  TIP1685     0.2052
   5252 OH2        -9.0740   14.1870   -8.4300 O.3   1697  TIP1686    -0.4105
   5253 H1         -9.3940   14.6350   -9.2130 H     1697  TIP1686     0.2052
   5254 H2         -9.7490   14.3440   -7.7700 H     1697  TIP1686     0.2052
   5255 OH2        12.3160   11.8530  -14.5320 O.3   1698  TIP1687    -0.4105
   5256 H1         12.8780   12.2920  -13.8930 H     1698  TIP1687     0.2052
   5257 H2         12.9080   11.2800  -15.0190 H     1698  TIP1687     0.2052
   5258 OH2       -15.6260   17.9990    9.5910 O.3   1699  TIP1688    -0.4105
   5259 H1        -16.4240   18.1790   10.0890 H     1699  TIP1688     0.2052
   5260 H2        -14.9650   17.8140   10.2580 H     1699  TIP1688     0.2052
   5261 OH2       -18.6640   25.4970   -1.7410 O.3   1700  TIP1689    -0.4105
   5262 H1        -18.7080   25.6770   -0.8020 H     1700  TIP1689     0.2052
   5263 H2        -17.7460   25.6430   -1.9700 H     1700  TIP1689     0.2052
   5264 OH2        -1.6360   20.5330  -11.8780 O.3   1701  TIP1690    -0.4105
   5265 H1         -1.3150   19.6420  -11.7380 H     1701  TIP1690     0.2052
   5266 H2         -2.5190   20.4170  -12.2280 H     1701  TIP1690     0.2052
   5267 OH2       -26.0530    5.6780    2.4190 O.3   1702  TIP1691    -0.4105
   5268 H1        -26.7460    5.1980    1.9670 H     1702  TIP1691     0.2052
   5269 H2        -25.2450    5.2370    2.1560 H     1702  TIP1691     0.2052
   5270 OH2        -5.2650    4.7800   13.9920 O.3   1703  TIP1692    -0.4105
   5271 H1         -5.8410    5.2760   14.5740 H     1703  TIP1692     0.2052
   5272 H2         -5.3640    5.2030   13.1390 H     1703  TIP1692     0.2052
   5273 OH2        18.8410    7.2480   17.0770 O.3   1704  TIP1693    -0.4105
   5274 H1         19.5540    7.8870   17.0910 H     1704  TIP1693     0.2052
   5275 H2         18.4460    7.3490   16.2100 H     1704  TIP1693     0.2052
   5276 OH2        -0.5390    8.8660   25.1030 O.3   1705  TIP1694    -0.4105
   5277 H1          0.4020    8.8790   25.2810 H     1705  TIP1694     0.2052
   5278 H2         -0.6330    9.3340   24.2730 H     1705  TIP1694     0.2052
   5279 OH2       -16.9840    8.5560   10.1360 O.3   1706  TIP1695    -0.4105
   5280 H1        -17.8520    8.8300    9.8400 H     1706  TIP1695     0.2052
   5281 H2        -16.3770    9.1200    9.6550 H     1706  TIP1695     0.2052
   5282 OH2         6.8000    4.5040  -27.2460 O.3   1707  TIP1696    -0.4105
   5283 H1          6.6850    3.7290  -27.7970 H     1707  TIP1696     0.2052
   5284 H2          7.6340    4.8790  -27.5310 H     1707  TIP1696     0.2052
   5285 OH2         9.2890   18.3190   -5.6400 O.3   1708  TIP1697    -0.4105
   5286 H1          8.3780   18.6080   -5.6940 H     1708  TIP1697     0.2052
   5287 H2          9.5180   18.4190   -4.7160 H     1708  TIP1697     0.2052
   5288 OH2        22.7670   -5.6390   -1.0250 O.3   1709  TIP1698    -0.4105
   5289 H1         23.3030   -5.7990   -0.2480 H     1709  TIP1698     0.2052
   5290 H2         22.6530   -6.5040   -1.4200 H     1709  TIP1698     0.2052
   5291 OH2         2.0220   30.2400   18.1690 O.3   1710  TIP1699    -0.4105
   5292 H1          2.2170   29.3620   17.8410 H     1710  TIP1699     0.2052
   5293 H2          1.2350   30.5050   17.6930 H     1710  TIP1699     0.2052
   5294 OH2        -9.1510   -4.6770   -8.5580 O.3   1711  TIP1700    -0.4105
   5295 H1         -8.6130   -5.0740   -9.2430 H     1711  TIP1700     0.2052
   5296 H2         -9.9460   -5.2100   -8.5400 H     1711  TIP1700     0.2052
   5297 OH2        -6.8170    3.1020   19.0200 O.3   1712  TIP1701    -0.4105
   5298 H1         -6.4170    3.3060   18.1750 H     1712  TIP1701     0.2052
   5299 H2         -7.2080    2.2370   18.8980 H     1712  TIP1701     0.2052
   5300 OH2        10.7150    9.8510  -19.1580 O.3   1713  TIP1702    -0.4105
   5301 H1         10.6750   10.3960  -18.3730 H     1713  TIP1702     0.2052
   5302 H2         10.1160   10.2730  -19.7740 H     1713  TIP1702     0.2052
   5303 OH2        -0.7840   16.9090  -17.0380 O.3   1714  TIP1703    -0.4105
   5304 H1         -0.3180   17.4980  -16.4450 H     1714  TIP1703     0.2052
   5305 H2         -1.0790   16.1900  -16.4800 H     1714  TIP1703     0.2052
   5306 OH2        -1.3910  -21.4180    1.0470 O.3   1715  TIP1704    -0.4105
   5307 H1         -0.8710  -21.9540    0.4490 H     1715  TIP1704     0.2052
   5308 H2         -2.0090  -20.9560    0.4810 H     1715  TIP1704     0.2052
   5309 OH2       -20.1210  -13.5710    4.8250 O.3   1716  TIP1705    -0.4105
   5310 H1        -20.8490  -13.7250    5.4270 H     1716  TIP1705     0.2052
   5311 H2        -20.2120  -12.6540    4.5670 H     1716  TIP1705     0.2052
   5312 OH2         7.2540    9.5010   26.2430 O.3   1717  TIP1706    -0.4105
   5313 H1          7.9180   10.1160   25.9310 H     1717  TIP1706     0.2052
   5314 H2          7.2050    8.8330   25.5590 H     1717  TIP1706     0.2052
   5315 OH2        14.0990  -21.1300   12.6810 O.3   1718  TIP1707    -0.4105
   5316 H1         13.6150  -21.7510   13.2250 H     1718  TIP1707     0.2052
   5317 H2         14.1270  -20.3270   13.2020 H     1718  TIP1707     0.2052
   5318 OH2        23.2010    2.0390  -10.6010 O.3   1719  TIP1708    -0.4105
   5319 H1         23.0800    1.9000   -9.6620 H     1719  TIP1708     0.2052
   5320 H2         22.3170    2.1830  -10.9390 H     1719  TIP1708     0.2052
   5321 OH2       -13.0720    2.7220   16.4770 O.3   1720  TIP1709    -0.4105
   5322 H1        -13.9760    3.0250   16.5600 H     1720  TIP1709     0.2052
   5323 H2        -12.5410    3.4920   16.6840 H     1720  TIP1709     0.2052
   5324 OH2       -12.1220   12.7920   -6.7660 O.3   1721  TIP1710    -0.4105
   5325 H1        -13.0340   13.0070   -6.5710 H     1721  TIP1710     0.2052
   5326 H2        -11.6150   13.4730   -6.3250 H     1721  TIP1710     0.2052
   5327 OH2        23.3330  -15.5710    6.4870 O.3   1722  TIP1711    -0.4105
   5328 H1         22.4800  -15.7770    6.8700 H     1722  TIP1711     0.2052
   5329 H2         23.1620  -14.8310    5.9040 H     1722  TIP1711     0.2052
   5330 OH2         1.7930   12.8490  -16.0930 O.3   1723  TIP1712    -0.4105
   5331 H1          1.7840   13.8060  -16.0480 H     1723  TIP1712     0.2052
   5332 H2          1.0930   12.5750  -15.5010 H     1723  TIP1712     0.2052
   5333 OH2       -19.2170  -17.3120   10.3190 O.3   1724  TIP1713    -0.4105
   5334 H1        -18.9750  -16.4420   10.6340 H     1724  TIP1713     0.2052
   5335 H2        -20.1490  -17.2420   10.1120 H     1724  TIP1713     0.2052
   5336 OH2         3.4170  -15.4030   27.3760 O.3   1725  TIP1714    -0.4105
   5337 H1          2.6640  -15.0120   27.8200 H     1725  TIP1714     0.2052
   5338 H2          3.6820  -16.1260   27.9450 H     1725  TIP1714     0.2052
   5339 OH2         1.0120   21.9770  -11.8640 O.3   1726  TIP1715    -0.4105
   5340 H1          1.3240   22.5200  -11.1400 H     1726  TIP1715     0.2052
   5341 H2          0.2010   21.5870  -11.5400 H     1726  TIP1715     0.2052
   5342 OH2         5.9340    5.2580   -6.4220 O.3   1727  TIP1716    -0.4105
   5343 H1          6.0200    5.9730   -5.7910 H     1727  TIP1716     0.2052
   5344 H2          6.7710    4.7960   -6.3770 H     1727  TIP1716     0.2052
   5345 OH2         2.7720   17.9760  -37.6460 O.3   1728  TIP1717    -0.4105
   5346 H1          2.1270   18.1810  -36.9700 H     1728  TIP1717     0.2052
   5347 H2          2.2930   18.0650  -38.4700 H     1728  TIP1717     0.2052
   5348 OH2        10.1590   23.9380   10.4900 O.3   1729  TIP1718    -0.4105
   5349 H1         11.1030   24.0530   10.6000 H     1729  TIP1718     0.2052
   5350 H2         10.0690   23.0790   10.0760 H     1729  TIP1718     0.2052
   5351 OH2       -14.7340   19.9490   -2.4010 O.3   1730  TIP1719    -0.4105
   5352 H1        -14.6850   20.8130   -2.8100 H     1730  TIP1719     0.2052
   5353 H2        -14.0650   19.4330   -2.8500 H     1730  TIP1719     0.2052
   5354 OH2        -7.9970    3.7250   22.5870 O.3   1731  TIP1720    -0.4105
   5355 H1         -7.0490    3.6400   22.4810 H     1731  TIP1720     0.2052
   5356 H2         -8.1330    4.6490   22.7950 H     1731  TIP1720     0.2052
   5357 OH2         4.1080  -17.0030   29.9630 O.3   1732  TIP1721    -0.4105
   5358 H1          4.3770  -17.7090   29.3760 H     1732  TIP1721     0.2052
   5359 H2          4.8960  -16.4700   30.0730 H     1732  TIP1721     0.2052
   5360 OH2         2.4240  -18.2600   -5.8940 O.3   1733  TIP1722    -0.4105
   5361 H1          2.7350  -18.5850   -5.0490 H     1733  TIP1722     0.2052
   5362 H2          3.2110  -18.2100   -6.4360 H     1733  TIP1722     0.2052
   5363 OH2        -2.0040   13.3150    9.5220 O.3   1734  TIP1723    -0.4105
   5364 H1         -1.3600   13.9590    9.8140 H     1734  TIP1723     0.2052
   5365 H2         -2.0320   12.6660   10.2260 H     1734  TIP1723     0.2052
   5366 OH2        -6.3540  -13.0660   11.1010 O.3   1735  TIP1724    -0.4105
   5367 H1         -6.8390  -13.3730   10.3350 H     1735  TIP1724     0.2052
   5368 H2         -6.8000  -13.4710   11.8450 H     1735  TIP1724     0.2052
   5369 OH2       -22.7660    6.3410   16.2350 O.3   1736  TIP1725    -0.4105
   5370 H1        -23.6630    6.0750   16.0320 H     1736  TIP1725     0.2052
   5371 H2        -22.8140    6.6870   17.1260 H     1736  TIP1725     0.2052
   5372 OH2         3.4760   -9.5810   -1.2100 O.3   1737  TIP1726    -0.4105
   5373 H1          3.4420   -9.9910   -0.3450 H     1737  TIP1726     0.2052
   5374 H2          3.7090  -10.2950   -1.8040 H     1737  TIP1726     0.2052
   5375 OH2        -1.9570  -15.3230   -9.7440 O.3   1738  TIP1727    -0.4105
   5376 H1         -2.6250  -15.9560  -10.0100 H     1738  TIP1727     0.2052
   5377 H2         -1.2240  -15.4840  -10.3380 H     1738  TIP1727     0.2052
   5378 OH2        27.1500   10.7480    3.4720 O.3   1739  TIP1728    -0.4105
   5379 H1         27.0890    9.8050    3.6260 H     1739  TIP1728     0.2052
   5380 H2         27.7580   11.0620    4.1410 H     1739  TIP1728     0.2052
   5381 OH2        -0.6600    1.0770   -6.5860 O.3   1740  TIP1729    -0.4105
   5382 H1         -0.8620    1.2170   -5.6610 H     1740  TIP1729     0.2052
   5383 H2         -1.5150    0.9840   -7.0070 H     1740  TIP1729     0.2052
   5384 OH2       -20.2730  -17.2350    7.2510 O.3   1741  TIP1730    -0.4105
   5385 H1        -20.9300  -16.6820    7.6730 H     1741  TIP1730     0.2052
   5386 H2        -20.7420  -18.0420    7.0350 H     1741  TIP1730     0.2052
   5387 OH2         3.5590  -16.4470    5.8600 O.3   1742  TIP1731    -0.4105
   5388 H1          3.4040  -15.8260    5.1490 H     1742  TIP1731     0.2052
   5389 H2          4.5110  -16.4670    5.9590 H     1742  TIP1731     0.2052
   5390 OH2         3.3870  -14.5200   20.5830 O.3   1743  TIP1732    -0.4105
   5391 H1          2.4320  -14.5760   20.6230 H     1743  TIP1732     0.2052
   5392 H2          3.5710  -13.5830   20.5160 H     1743  TIP1732     0.2052
   5393 OH2        14.6770    4.1290   -7.0450 O.3   1744  TIP1733    -0.4105
   5394 H1         15.1310    3.8740   -7.8480 H     1744  TIP1733     0.2052
   5395 H2         15.0370    3.5510   -6.3720 H     1744  TIP1733     0.2052
   5396 OH2        17.1870   -2.8580   11.5660 O.3   1745  TIP1734    -0.4105
   5397 H1         16.4850   -2.9960   12.2020 H     1745  TIP1734     0.2052
   5398 H2         17.3630   -1.9180   11.6030 H     1745  TIP1734     0.2052
   5399 OH2       -15.9390   10.0710   14.4540 O.3   1746  TIP1735    -0.4105
   5400 H1        -15.7400   10.0820   15.3900 H     1746  TIP1735     0.2052
   5401 H2        -15.8620    9.1500   14.2030 H     1746  TIP1735     0.2052
   5402 OH2        16.3230   -6.2650   -6.2720 O.3   1747  TIP1736    -0.4105
   5403 H1         16.1050   -5.5130   -6.8240 H     1747  TIP1736     0.2052
   5404 H2         17.2760   -6.2350   -6.1900 H     1747  TIP1736     0.2052
   5405 OH2       -33.6470   -4.9460   -0.7410 O.3   1748  TIP1737    -0.4105
   5406 H1        -32.8150   -5.3870   -0.5670 H     1748  TIP1737     0.2052
   5407 H2        -33.4000   -4.0540   -0.9840 H     1748  TIP1737     0.2052
   5408 OH2         3.7220    7.5320   21.8370 O.3   1749  TIP1738    -0.4105
   5409 H1          4.0190    6.7890   22.3620 H     1749  TIP1738     0.2052
   5410 H2          3.6780    7.1930   20.9430 H     1749  TIP1738     0.2052
   5411 OH2        25.7080    7.6320   -6.6990 O.3   1750  TIP1739    -0.4105
   5412 H1         25.4870    7.1790   -7.5120 H     1750  TIP1739     0.2052
   5413 H2         25.0690    8.3420   -6.6380 H     1750  TIP1739     0.2052
   5414 OH2        24.1340   -9.5940    5.0370 O.3   1751  TIP1740    -0.4105
   5415 H1         23.9340  -10.1570    4.2890 H     1751  TIP1740     0.2052
   5416 H2         25.0780   -9.6850    5.1600 H     1751  TIP1740     0.2052
   5417 OH2       -10.5100   -8.6350  -16.6420 O.3   1752  TIP1741    -0.4105
   5418 H1         -9.7140   -8.2060  -16.3270 H     1752  TIP1741     0.2052
   5419 H2        -10.2160   -9.1830  -17.3690 H     1752  TIP1741     0.2052
   5420 OH2        25.6680   11.3530  -18.0490 O.3   1753  TIP1742    -0.4105
   5421 H1         26.3160   11.0600  -17.4080 H     1753  TIP1742     0.2052
   5422 H2         24.8240   11.1590  -17.6420 H     1753  TIP1742     0.2052
   5423 OH2        -8.3180  -18.1290   26.5500 O.3   1754  TIP1743    -0.4105
   5424 H1         -8.7950  -18.5770   27.2480 H     1754  TIP1743     0.2052
   5425 H2         -8.2160  -18.7900   25.8650 H     1754  TIP1743     0.2052
   5426 OH2       -18.3480   -2.1020   15.3030 O.3   1755  TIP1744    -0.4105
   5427 H1        -18.1000   -1.9740   14.3870 H     1755  TIP1744     0.2052
   5428 H2        -17.5150   -2.1760   15.7690 H     1755  TIP1744     0.2052
   5429 OH2       -19.1160  -18.2470  -14.0710 O.3   1756  TIP1745    -0.4105
   5430 H1        -19.3850  -19.1560  -13.9350 H     1756  TIP1745     0.2052
   5431 H2        -19.8670  -17.8360  -14.4990 H     1756  TIP1745     0.2052
   5432 OH2        -3.8410  -10.1370   -2.3710 O.3   1757  TIP1746    -0.4105
   5433 H1         -3.0250  -10.1190   -2.8720 H     1757  TIP1746     0.2052
   5434 H2         -4.2540  -10.9660   -2.6150 H     1757  TIP1746     0.2052
   5435 OH2       -18.0410  -15.3160   22.5880 O.3   1758  TIP1747    -0.4105
   5436 H1        -17.4350  -14.6970   22.1810 H     1758  TIP1747     0.2052
   5437 H2        -18.9060  -15.0390   22.2850 H     1758  TIP1747     0.2052
   5438 OH2        10.3280   21.7720   20.7990 O.3   1759  TIP1748    -0.4105
   5439 H1         10.8320   21.1380   21.3100 H     1759  TIP1748     0.2052
   5440 H2         10.7010   21.7210   19.9190 H     1759  TIP1748     0.2052
   5441 OH2         2.9000   -0.6400   32.0390 O.3   1760  TIP1749    -0.4105
   5442 H1          2.0260   -0.9630   31.8190 H     1760  TIP1749     0.2052
   5443 H2          3.4950   -1.3080   31.6980 H     1760  TIP1749     0.2052
   5444 OH2         4.3140   18.7400  -28.2810 O.3   1761  TIP1750    -0.4105
   5445 H1          5.2230   18.7920  -27.9850 H     1761  TIP1750     0.2052
   5446 H2          3.8200   19.2310  -27.6250 H     1761  TIP1750     0.2052
   5447 OH2         5.3440  -10.9100  -10.8370 O.3   1762  TIP1751    -0.4105
   5448 H1          4.8490  -10.4660  -11.5260 H     1762  TIP1751     0.2052
   5449 H2          5.6860  -11.6990  -11.2580 H     1762  TIP1751     0.2052
   5450 OH2        30.6140   -2.4070   -0.4910 O.3   1763  TIP1752    -0.4105
   5451 H1         31.0960   -2.6490   -1.2820 H     1763  TIP1752     0.2052
   5452 H2         31.2850   -2.0780    0.1080 H     1763  TIP1752     0.2052
   5453 OH2        -7.6770   22.9520  -17.3510 O.3   1764  TIP1753    -0.4105
   5454 H1         -7.2070   22.9440  -18.1850 H     1764  TIP1753     0.2052
   5455 H2         -7.8990   22.0350  -17.1920 H     1764  TIP1753     0.2052
   5456 OH2         4.4140   12.5980   -2.3890 O.3   1765  TIP1754    -0.4105
   5457 H1          3.4910   12.3750   -2.2700 H     1765  TIP1754     0.2052
   5458 H2          4.6100   12.3330   -3.2870 H     1765  TIP1754     0.2052
   5459 OH2         0.5010   22.5860   21.5530 O.3   1766  TIP1755    -0.4105
   5460 H1          0.5800   21.7400   21.9940 H     1766  TIP1755     0.2052
   5461 H2          1.4040   22.8800   21.4360 H     1766  TIP1755     0.2052
   5462 OH2        11.3650   15.6230    0.6820 O.3   1767  TIP1756    -0.4105
   5463 H1         10.6870   16.2390    0.4070 H     1767  TIP1756     0.2052
   5464 H2         12.1580   16.1550    0.7510 H     1767  TIP1756     0.2052
   5465 OH2        -7.6870   23.0070  -11.3110 O.3   1768  TIP1757    -0.4105
   5466 H1         -7.2330   22.6110  -10.5670 H     1768  TIP1757     0.2052
   5467 H2         -7.0180   23.0740  -11.9930 H     1768  TIP1757     0.2052
   5468 OH2        -6.5060  -10.8740  -18.7790 O.3   1769  TIP1758    -0.4105
   5469 H1         -6.1120  -10.0810  -19.1410 H     1769  TIP1758     0.2052
   5470 H2         -6.5570  -10.7100  -17.8380 H     1769  TIP1758     0.2052
   5471 OH2        -2.4400    2.3860  -16.3020 O.3   1770  TIP1759    -0.4105
   5472 H1         -2.2160    3.1930  -16.7660 H     1770  TIP1759     0.2052
   5473 H2         -1.8200    2.3480  -15.5740 H     1770  TIP1759     0.2052
   5474 OH2       -10.7300    3.1250   21.6930 O.3   1771  TIP1760    -0.4105
   5475 H1         -9.9070    3.5250   21.9740 H     1771  TIP1760     0.2052
   5476 H2        -11.4100    3.6760   22.0820 H     1771  TIP1760     0.2052
   5477 OH2       -18.0520   11.1140    6.7710 O.3   1772  TIP1761    -0.4105
   5478 H1        -18.8560   10.7580    7.1500 H     1772  TIP1761     0.2052
   5479 H2        -17.8300   10.5050    6.0650 H     1772  TIP1761     0.2052
   5480 OH2       -14.0240   20.4410   14.1210 O.3   1773  TIP1762    -0.4105
   5481 H1        -13.2240   20.1610   13.6760 H     1773  TIP1762     0.2052
   5482 H2        -14.1680   19.7780   14.7960 H     1773  TIP1762     0.2052
   5483 OH2        12.0230   21.8160   24.0370 O.3   1774  TIP1763    -0.4105
   5484 H1         11.6440   21.0050   24.3750 H     1774  TIP1763     0.2052
   5485 H2         12.9110   21.5750   23.7740 H     1774  TIP1763     0.2052
   5486 OH2        17.4310    5.4890   22.3830 O.3   1775  TIP1764    -0.4105
   5487 H1         17.6380    5.9790   23.1790 H     1775  TIP1764     0.2052
   5488 H2         17.3040    6.1620   21.7140 H     1775  TIP1764     0.2052
   5489 OH2        15.2430   16.5530   28.5160 O.3   1776  TIP1765    -0.4105
   5490 H1         16.1810   16.7050   28.6340 H     1776  TIP1765     0.2052
   5491 H2         14.8240   17.1200   29.1640 H     1776  TIP1765     0.2052
   5492 OH2         2.9080  -16.2260    8.5570 O.3   1777  TIP1766    -0.4105
   5493 H1          2.1580  -15.6330    8.5260 H     1777  TIP1766     0.2052
   5494 H2          3.0890  -16.4320    7.6400 H     1777  TIP1766     0.2052
   5495 OH2        -0.3600  -26.5420  -19.2130 O.3   1778  TIP1767    -0.4105
   5496 H1         -0.2030  -25.9490  -18.4780 H     1778  TIP1767     0.2052
   5497 H2         -1.0400  -27.1380  -18.8990 H     1778  TIP1767     0.2052
   5498 OH2       -22.1450   14.8130   10.4080 O.3   1779  TIP1768    -0.4105
   5499 H1        -22.5090   13.9290   10.3570 H     1779  TIP1768     0.2052
   5500 H2        -22.8110   15.3200   10.8720 H     1779  TIP1768     0.2052
   5501 OH2        27.0500   16.6130    4.7400 O.3   1780  TIP1769    -0.4105
   5502 H1         27.1160   17.5110    4.4140 H     1780  TIP1769     0.2052
   5503 H2         26.2010   16.3050    4.4220 H     1780  TIP1769     0.2052
   5504 OH2         0.0470  -13.4030   34.3990 O.3   1781  TIP1770    -0.4105
   5505 H1          0.8950  -13.7670   34.1450 H     1781  TIP1770     0.2052
   5506 H2         -0.1050  -13.7430   35.2810 H     1781  TIP1770     0.2052
   5507 OH2       -12.8250   -2.5900  -20.0500 O.3   1782  TIP1771    -0.4105
   5508 H1        -13.0860   -1.6690  -20.0540 H     1782  TIP1771     0.2052
   5509 H2        -11.8790   -2.5710  -19.9060 H     1782  TIP1771     0.2052
   5510 OH2         6.2030   -5.5220   -7.8570 O.3   1783  TIP1772    -0.4105
   5511 H1          6.7670   -5.1750   -7.1650 H     1783  TIP1772     0.2052
   5512 H2          6.7970   -6.0010   -8.4340 H     1783  TIP1772     0.2052
   5513 OH2         1.9130  -18.8440   15.8270 O.3   1784  TIP1773    -0.4105
   5514 H1          1.5310  -18.0860   16.2710 H     1784  TIP1773     0.2052
   5515 H2          2.5280  -18.4680   15.1970 H     1784  TIP1773     0.2052
   5516 OH2       -16.9470  -10.9970    0.9370 O.3   1785  TIP1774    -0.4105
   5517 H1        -16.7630  -11.4710    0.1260 H     1785  TIP1774     0.2052
   5518 H2        -17.4480  -10.2310    0.6590 H     1785  TIP1774     0.2052
   5519 OH2        -2.3460  -12.2340   -0.3820 O.3   1786  TIP1775    -0.4105
   5520 H1         -2.9740  -12.8770   -0.7120 H     1786  TIP1775     0.2052
   5521 H2         -2.8870  -11.5620    0.0340 H     1786  TIP1775     0.2052
   5522 OH2        16.1770   -7.1400  -16.3850 O.3   1787  TIP1776    -0.4105
   5523 H1         15.6390   -6.3830  -16.1540 H     1787  TIP1776     0.2052
   5524 H2         17.0490   -6.9240  -16.0550 H     1787  TIP1776     0.2052
   5525 OH2         6.7020   17.6770  -28.3420 O.3   1788  TIP1777    -0.4105
   5526 H1          6.5810   18.3380  -27.6600 H     1788  TIP1777     0.2052
   5527 H2          7.5640   17.8690  -28.7110 H     1788  TIP1777     0.2052
   5528 OH2         7.4780    2.3210   21.3140 O.3   1789  TIP1778    -0.4105
   5529 H1          6.7000    2.5730   20.8170 H     1789  TIP1778     0.2052
   5530 H2          7.1750    2.2620   22.2200 H     1789  TIP1778     0.2052
   5531 OH2       -14.7760    4.5260    8.8220 O.3   1790  TIP1779    -0.4105
   5532 H1        -15.1820    3.6590    8.8140 H     1790  TIP1779     0.2052
   5533 H2        -14.0190    4.4410    8.2420 H     1790  TIP1779     0.2052
   5534 OH2       -31.5100  -15.0500   -5.0060 O.3   1791  TIP1780    -0.4105
   5535 H1        -32.3330  -14.8930   -4.5430 H     1791  TIP1780     0.2052
   5536 H2        -30.8310  -14.8290   -4.3690 H     1791  TIP1780     0.2052
   5537 OH2        -0.6080  -23.5160  -16.6210 O.3   1792  TIP1781    -0.4105
   5538 H1         -1.2520  -24.2090  -16.7700 H     1792  TIP1781     0.2052
   5539 H2         -0.1980  -23.3820  -17.4750 H     1792  TIP1781     0.2052
   5540 OH2       -33.5070    4.9180    6.4930 O.3   1793  TIP1782    -0.4105
   5541 H1        -33.0350    5.4890    7.1000 H     1793  TIP1782     0.2052
   5542 H2        -34.3100    4.6840    6.9580 H     1793  TIP1782     0.2052
   5543 OH2         2.3610  -11.2090   30.6770 O.3   1794  TIP1783    -0.4105
   5544 H1          2.3190  -10.7860   29.8190 H     1794  TIP1783     0.2052
   5545 H2          1.4820  -11.5600   30.8160 H     1794  TIP1783     0.2052
   5546 OH2        -0.8740   -1.1200   13.8480 O.3   1795  TIP1784    -0.4105
   5547 H1         -0.5320   -0.6170   14.5870 H     1795  TIP1784     0.2052
   5548 H2         -1.4490   -1.7730   14.2470 H     1795  TIP1784     0.2052
   5549 OH2       -15.2250   -9.8230   19.4230 O.3   1796  TIP1785    -0.4105
   5550 H1        -15.5370   -9.2570   18.7170 H     1796  TIP1785     0.2052
   5551 H2        -14.6520   -9.2620   19.9450 H     1796  TIP1785     0.2052
   5552 OH2       -34.6390  -10.9340    8.1350 O.3   1797  TIP1786    -0.4105
   5553 H1        -34.7090  -11.7810    7.6930 H     1797  TIP1786     0.2052
   5554 H2        -33.7630  -10.9370    8.5210 H     1797  TIP1786     0.2052
   5555 OH2        31.5250    6.1120   -4.4530 O.3   1798  TIP1787    -0.4105
   5556 H1         31.3410    5.8810   -3.5430 H     1798  TIP1787     0.2052
   5557 H2         30.7120    6.5050   -4.7710 H     1798  TIP1787     0.2052
   5558 OH2         0.1420  -17.5670    8.2650 O.3   1799  TIP1788    -0.4105
   5559 H1          0.7830  -16.8800    8.0830 H     1799  TIP1788     0.2052
   5560 H2         -0.7070  -17.1410    8.1480 H     1799  TIP1788     0.2052
   5561 OH2        -9.0500   -0.7460  -18.1370 O.3   1800  TIP1789    -0.4105
   5562 H1         -9.1080   -0.7910  -17.1830 H     1800  TIP1789     0.2052
   5563 H2         -9.4070   -1.5810  -18.4390 H     1800  TIP1789     0.2052
   5564 OH2         5.4340   13.2990   19.1790 O.3   1801  TIP1790    -0.4105
   5565 H1          4.9100   13.0970   18.4040 H     1801  TIP1790     0.2052
   5566 H2          5.3240   14.2420   19.3030 H     1801  TIP1790     0.2052
   5567 OH2       -21.7400   12.8040    2.1930 O.3   1802  TIP1791    -0.4105
   5568 H1        -22.5950   12.4090    2.0240 H     1802  TIP1791     0.2052
   5569 H2        -21.1610   12.0600    2.3610 H     1802  TIP1791     0.2052
   5570 OH2         2.0530  -15.5280   24.9430 O.3   1803  TIP1792    -0.4105
   5571 H1          2.7020  -15.2140   24.3140 H     1803  TIP1792     0.2052
   5572 H2          2.4700  -15.4140   25.7970 H     1803  TIP1792     0.2052
   5573 OH2       -13.1810    8.9390   18.4980 O.3   1804  TIP1793    -0.4105
   5574 H1        -12.2850    9.2320   18.6650 H     1804  TIP1793     0.2052
   5575 H2        -13.1840    8.6900   17.5740 H     1804  TIP1793     0.2052
   5576 OH2         5.8490   11.1740   23.4120 O.3   1805  TIP1794    -0.4105
   5577 H1          6.6260   11.2480   23.9660 H     1805  TIP1794     0.2052
   5578 H2          5.4520   12.0440   23.4360 H     1805  TIP1794     0.2052
   5579 OH2       -18.4000    1.0250  -17.5080 O.3   1806  TIP1795    -0.4105
   5580 H1        -18.0680    1.4630  -16.7240 H     1806  TIP1795     0.2052
   5581 H2        -19.3180    0.8400  -17.3080 H     1806  TIP1795     0.2052
   5582 OH2         3.7840   14.8380   21.6340 O.3   1807  TIP1796    -0.4105
   5583 H1          3.9420   15.0860   20.7230 H     1807  TIP1796     0.2052
   5584 H2          3.9270   15.6440   22.1300 H     1807  TIP1796     0.2052
   5585 OH2       -13.1000   13.7540   16.4130 O.3   1808  TIP1797    -0.4105
   5586 H1        -13.0610   13.4530   17.3210 H     1808  TIP1797     0.2052
   5587 H2        -12.4460   14.4510   16.3620 H     1808  TIP1797     0.2052
   5588 OH2         0.8280   17.9290  -14.5980 O.3   1809  TIP1798    -0.4105
   5589 H1          1.5770   18.5180  -14.5070 H     1809  TIP1798     0.2052
   5590 H2          0.4770   17.8490  -13.7110 H     1809  TIP1798     0.2052
   5591 OH2        -3.3510  -20.8830   33.5300 O.3   1810  TIP1799    -0.4105
   5592 H1         -4.0770  -20.2710   33.4090 H     1810  TIP1799     0.2052
   5593 H2         -2.8970  -20.5640   34.3100 H     1810  TIP1799     0.2052
   5594 OH2         3.7640  -20.9810    3.6040 O.3   1811  TIP1800    -0.4105
   5595 H1          3.9470  -20.0640    3.3970 H     1811  TIP1800     0.2052
   5596 H2          2.8210  -21.0080    3.7620 H     1811  TIP1800     0.2052
   5597 OH2        -2.5290  -14.9080   20.7380 O.3   1812  TIP1801    -0.4105
   5598 H1         -2.6220  -15.8290   20.4970 H     1812  TIP1801     0.2052
   5599 H2         -2.5260  -14.4400   19.9030 H     1812  TIP1801     0.2052
   5600 OH2         7.1690  -19.6700   -5.5380 O.3   1813  TIP1802    -0.4105
   5601 H1          6.7800  -19.0020   -6.1030 H     1813  TIP1802     0.2052
   5602 H2          7.5370  -20.3120   -6.1450 H     1813  TIP1802     0.2052
   5603 OH2         5.7180   -9.8120    2.6270 O.3   1814  TIP1803    -0.4105
   5604 H1          6.5080   -9.3820    2.3010 H     1814  TIP1803     0.2052
   5605 H2          5.9630  -10.1420    3.4920 H     1814  TIP1803     0.2052
   5606 OH2         8.9400  -19.9290   21.9850 O.3   1815  TIP1804    -0.4105
   5607 H1          9.2440  -19.0770   21.6710 H     1815  TIP1804     0.2052
   5608 H2          9.1010  -20.5250   21.2530 H     1815  TIP1804     0.2052
   5609 OH2        -1.2600   -0.2820  -10.6010 O.3   1816  TIP1805    -0.4105
   5610 H1         -1.7990    0.4850  -10.7970 H     1816  TIP1805     0.2052
   5611 H2         -1.6040   -0.9690  -11.1720 H     1816  TIP1805     0.2052
   5612 OH2        -6.6130    7.0410   20.5380 O.3   1817  TIP1806    -0.4105
   5613 H1         -6.1120    6.2980   20.8730 H     1817  TIP1806     0.2052
   5614 H2         -7.2130    7.2660   21.2490 H     1817  TIP1806     0.2052
   5615 OH2        -0.1100    6.6700  -28.1960 O.3   1818  TIP1807    -0.4105
   5616 H1          0.6240    7.1270  -28.6080 H     1818  TIP1807     0.2052
   5617 H2         -0.8400    7.2860  -28.2570 H     1818  TIP1807     0.2052
   5618 OH2         3.6780  -27.5880  -10.5690 O.3   1819  TIP1808    -0.4105
   5619 H1          3.5900  -27.7660  -11.5060 H     1819  TIP1808     0.2052
   5620 H2          4.6190  -27.4770  -10.4340 H     1819  TIP1808     0.2052
   5621 OH2         6.6200   12.6190  -23.8020 O.3   1820  TIP1809    -0.4105
   5622 H1          6.5140   11.6710  -23.7270 H     1820  TIP1809     0.2052
   5623 H2          5.7280   12.9640  -23.7640 H     1820  TIP1809     0.2052
   5624 OH2        24.6010    2.7060   12.3320 O.3   1821  TIP1810    -0.4105
   5625 H1         25.5030    2.4020   12.2320 H     1821  TIP1810     0.2052
   5626 H2         24.3580    3.0270   11.4630 H     1821  TIP1810     0.2052
   5627 OH2       -11.5450    3.0550   -6.6910 O.3   1822  TIP1811    -0.4105
   5628 H1        -12.1040    3.4370   -6.0140 H     1822  TIP1811     0.2052
   5629 H2        -12.1410    2.5330   -7.2280 H     1822  TIP1811     0.2052
   5630 OH2       -25.1180  -17.2330    1.6960 O.3   1823  TIP1812    -0.4105
   5631 H1        -25.1250  -18.0510    1.1990 H     1823  TIP1812     0.2052
   5632 H2        -25.0320  -17.5090    2.6090 H     1823  TIP1812     0.2052
   5633 OH2        -4.9550   -8.0810  -17.2530 O.3   1824  TIP1813    -0.4105
   5634 H1         -5.0870   -8.3400  -18.1650 H     1824  TIP1813     0.2052
   5635 H2         -4.3900   -7.3100  -17.3020 H     1824  TIP1813     0.2052
   5636 OH2         0.9880   -6.0160   22.2090 O.3   1825  TIP1814    -0.4105
   5637 H1          0.5220   -5.6290   21.4680 H     1825  TIP1814     0.2052
   5638 H2          1.7010   -5.4020   22.3900 H     1825  TIP1814     0.2052
   5639 OH2        -5.4400  -27.1170   -7.8650 O.3   1826  TIP1815    -0.4105
   5640 H1         -5.4080  -27.3710   -8.7880 H     1826  TIP1815     0.2052
   5641 H2         -5.4060  -26.1600   -7.8790 H     1826  TIP1815     0.2052
   5642 OH2       -10.3210   27.9720   -7.5220 O.3   1827  TIP1816    -0.4105
   5643 H1         -9.6580   28.2530   -6.8930 H     1827  TIP1816     0.2052
   5644 H2        -10.7950   27.2710   -7.0740 H     1827  TIP1816     0.2052
   5645 OH2         4.3500   -5.4610    2.6470 O.3   1828  TIP1817    -0.4105
   5646 H1          4.3660   -4.7890    1.9650 H     1828  TIP1817     0.2052
   5647 H2          4.4080   -6.2890    2.1690 H     1828  TIP1817     0.2052
   5648 OH2       -21.5340   -3.6610   -4.9450 O.3   1829  TIP1818    -0.4105
   5649 H1        -22.0300   -4.2600   -4.3860 H     1829  TIP1818     0.2052
   5650 H2        -22.1810   -3.0220   -5.2440 H     1829  TIP1818     0.2052
   5651 OH2        -6.1300    8.0300    3.8450 O.3   1830  TIP1819    -0.4105
   5652 H1         -6.4360    7.4770    4.5640 H     1830  TIP1819     0.2052
   5653 H2         -5.6050    8.7080    4.2710 H     1830  TIP1819     0.2052
   5654 OH2         8.1500   -5.8710   10.4200 O.3   1831  TIP1820    -0.4105
   5655 H1          7.3120   -6.3120   10.5600 H     1831  TIP1820     0.2052
   5656 H2          8.2550   -5.8520    9.4690 H     1831  TIP1820     0.2052
   5657 OH2       -34.1600   -0.2190    9.0800 O.3   1832  TIP1821    -0.4105
   5658 H1        -34.2640    0.6580    9.4500 H     1832  TIP1821     0.2052
   5659 H2        -33.6320   -0.6890    9.7250 H     1832  TIP1821     0.2052
   5660 OH2        21.1550   15.1110  -13.8530 O.3   1833  TIP1822    -0.4105
   5661 H1         21.9890   15.1760  -13.3870 H     1833  TIP1822     0.2052
   5662 H2         21.3750   15.2970  -14.7660 H     1833  TIP1822     0.2052
   5663 OH2        -4.7630   18.4120  -12.7990 O.3   1834  TIP1823    -0.4105
   5664 H1         -5.6150   18.1830  -13.1690 H     1834  TIP1823     0.2052
   5665 H2         -4.8750   19.3040  -12.4720 H     1834  TIP1823     0.2052
   5666 OH2        14.5550    6.6080   -0.1750 O.3   1835  TIP1824    -0.4105
   5667 H1         15.3520    6.5040   -0.6950 H     1835  TIP1824     0.2052
   5668 H2         13.9660    5.9260   -0.4970 H     1835  TIP1824     0.2052
   5669 OH2        14.9690  -10.6690    5.6790 O.3   1836  TIP1825    -0.4105
   5670 H1         14.5630   -9.8510    5.9660 H     1836  TIP1825     0.2052
   5671 H2         14.2350  -11.2690    5.5500 H     1836  TIP1825     0.2052
   5672 OH2         9.1040   26.4200   22.3050 O.3   1837  TIP1826    -0.4105
   5673 H1          9.7290   27.0060   21.8800 H     1837  TIP1826     0.2052
   5674 H2          8.4370   26.2560   21.6370 H     1837  TIP1826     0.2052
   5675 OH2       -14.1990    5.4890   16.7480 O.3   1838  TIP1827    -0.4105
   5676 H1        -13.5100    5.3430   17.3960 H     1838  TIP1827     0.2052
   5677 H2        -13.7650    5.3640   15.9040 H     1838  TIP1827     0.2052
   5678 OH2         1.1660   -9.0230  -13.9030 O.3   1839  TIP1828    -0.4105
   5679 H1          0.5810   -9.7530  -14.1040 H     1839  TIP1828     0.2052
   5680 H2          0.6250   -8.2420  -14.0190 H     1839  TIP1828     0.2052
   5681 OH2        14.1640   15.1600  -19.0030 O.3   1840  TIP1829    -0.4105
   5682 H1         13.5040   15.8260  -19.1970 H     1840  TIP1829     0.2052
   5683 H2         14.2160   15.1460  -18.0470 H     1840  TIP1829     0.2052
   5684 OH2        -0.6150   10.7170   -4.3570 O.3   1841  TIP1830    -0.4105
   5685 H1         -0.6850    9.7760   -4.1990 H     1841  TIP1830     0.2052
   5686 H2         -0.9410   10.8360   -5.2500 H     1841  TIP1830     0.2052
   5687 OH2        -5.7200  -10.8210  -24.6360 O.3   1842  TIP1831    -0.4105
   5688 H1         -5.6430  -11.7690  -24.5310 H     1842  TIP1831     0.2052
   5689 H2         -5.8250  -10.4890  -23.7450 H     1842  TIP1831     0.2052
   5690 OH2        14.2810  -21.7120   17.6130 O.3   1843  TIP1832    -0.4105
   5691 H1         15.1250  -22.0750   17.3440 H     1843  TIP1832     0.2052
   5692 H2         13.8650  -21.4410   16.7940 H     1843  TIP1832     0.2052
   5693 OH2        17.9890  -14.9200    5.8080 O.3   1844  TIP1833    -0.4105
   5694 H1         18.2620  -15.3050    6.6410 H     1844  TIP1833     0.2052
   5695 H2         17.9990  -15.6520    5.1910 H     1844  TIP1833     0.2052
   5696 OH2       -16.6960  -18.8540   -5.7570 O.3   1845  TIP1834    -0.4105
   5697 H1        -16.8540  -19.6520   -5.2520 H     1845  TIP1834     0.2052
   5698 H2        -17.0580  -19.0420   -6.6230 H     1845  TIP1834     0.2052
   5699 OH2       -14.6740  -18.7960  -17.2670 O.3   1846  TIP1835    -0.4105
   5700 H1        -14.9810  -18.9030  -16.3670 H     1846  TIP1835     0.2052
   5701 H2        -15.1030  -19.5010  -17.7520 H     1846  TIP1835     0.2052
   5702 OH2        -6.7670   10.3240  -27.1840 O.3   1847  TIP1836    -0.4105
   5703 H1         -6.9580    9.4620  -26.8130 H     1847  TIP1836     0.2052
   5704 H2         -6.5950   10.8800  -26.4240 H     1847  TIP1836     0.2052
   5705 OH2         9.3660    7.3290   18.2410 O.3   1848  TIP1837    -0.4105
   5706 H1          9.4960    6.5110   18.7210 H     1848  TIP1837     0.2052
   5707 H2          8.8030    7.8540   18.8090 H     1848  TIP1837     0.2052
   5708 OH2       -25.7020  -13.8780   -9.9240 O.3   1849  TIP1838    -0.4105
   5709 H1        -25.1630  -13.7930   -9.1370 H     1849  TIP1838     0.2052
   5710 H2        -25.2430  -13.3600  -10.5860 H     1849  TIP1838     0.2052
   5711 OH2       -30.7760    6.6880    1.8260 O.3   1850  TIP1839    -0.4105
   5712 H1        -30.4160    5.8140    1.9810 H     1850  TIP1839     0.2052
   5713 H2        -31.3280    6.8590    2.5890 H     1850  TIP1839     0.2052
   5714 OH2        22.0230    0.5900    2.9640 O.3   1851  TIP1840    -0.4105
   5715 H1         21.0700    0.5900    3.0460 H     1851  TIP1840     0.2052
   5716 H2         22.1890    0.2190    2.0970 H     1851  TIP1840     0.2052
   5717 OH2         9.2540    1.5430  -12.6090 O.3   1852  TIP1841    -0.4105
   5718 H1          9.7470    0.9600  -13.1870 H     1852  TIP1841     0.2052
   5719 H2          8.3490    1.4730  -12.9140 H     1852  TIP1841     0.2052
   5720 OH2         8.2300   -4.6760   -6.1950 O.3   1853  TIP1842    -0.4105
   5721 H1          8.1230   -5.3200   -5.4940 H     1853  TIP1842     0.2052
   5722 H2          8.3660   -3.8460   -5.7390 H     1853  TIP1842     0.2052
   5723 OH2         0.4400   13.2310   21.1820 O.3   1854  TIP1843    -0.4105
   5724 H1         -0.2650   13.5970   20.6490 H     1854  TIP1843     0.2052
   5725 H2          0.4740   13.7940   21.9550 H     1854  TIP1843     0.2052
   5726 OH2         8.2000  -25.9210    7.6000 O.3   1855  TIP1844    -0.4105
   5727 H1          8.6190  -25.3450    6.9600 H     1855  TIP1844     0.2052
   5728 H2          7.7760  -25.3250    8.2180 H     1855  TIP1844     0.2052
   5729 OH2       -27.2860    2.7210    7.7170 O.3   1856  TIP1845    -0.4105
   5730 H1        -26.5780    2.3170    7.2150 H     1856  TIP1845     0.2052
   5731 H2        -27.7930    1.9830    8.0550 H     1856  TIP1845     0.2052
   5732 OH2       -17.7320    0.3760   -4.4950 O.3   1857  TIP1846    -0.4105
   5733 H1        -17.4860    0.0160   -3.6430 H     1857  TIP1846     0.2052
   5734 H2        -18.6650    0.1820   -4.5780 H     1857  TIP1846     0.2052
   5735 OH2       -13.1510    7.8460   -6.0320 O.3   1858  TIP1847    -0.4105
   5736 H1        -13.6070    8.6630   -6.2360 H     1858  TIP1847     0.2052
   5737 H2        -12.4970    7.7580   -6.7260 H     1858  TIP1847     0.2052
   5738 OH2        15.7320   14.6210  -12.9240 O.3   1859  TIP1848    -0.4105
   5739 H1         16.6290   14.6550  -13.2560 H     1859  TIP1848     0.2052
   5740 H2         15.6070   15.4600  -12.4810 H     1859  TIP1848     0.2052
   5741 OH2       -18.0850   -9.2860   15.8330 O.3   1860  TIP1849    -0.4105
   5742 H1        -17.3090   -9.3850   15.2820 H     1860  TIP1849     0.2052
   5743 H2        -17.7370   -9.1480   16.7140 H     1860  TIP1849     0.2052
   5744 OH2       -16.1830    6.7990  -13.7920 O.3   1861  TIP1850    -0.4105
   5745 H1        -16.3980    6.0230  -13.2730 H     1861  TIP1850     0.2052
   5746 H2        -16.9440    7.3720  -13.6920 H     1861  TIP1850     0.2052
   5747 OH2         3.3310   -7.6770   20.1340 O.3   1862  TIP1851    -0.4105
   5748 H1          2.4660   -7.5680   20.5300 H     1862  TIP1851     0.2052
   5749 H2          3.9450   -7.4370   20.8280 H     1862  TIP1851     0.2052
   5750 OH2         5.8740   17.2810  -16.5220 O.3   1863  TIP1852    -0.4105
   5751 H1          5.3650   17.8920  -15.9910 H     1863  TIP1852     0.2052
   5752 H2          6.7110   17.7230  -16.6620 H     1863  TIP1852     0.2052
   5753 OH2        -1.2560    0.8660   23.5500 O.3   1864  TIP1853    -0.4105
   5754 H1         -1.4520    1.8010   23.4940 H     1864  TIP1853     0.2052
   5755 H2         -1.5310    0.5110   22.7050 H     1864  TIP1853     0.2052
   5756 OH2         8.3380  -15.4910   -0.4450 O.3   1865  TIP1854    -0.4105
   5757 H1          8.4010  -14.8380   -1.1420 H     1865  TIP1854     0.2052
   5758 H2          7.4000  -15.5660   -0.2700 H     1865  TIP1854     0.2052
   5759 OH2        -2.3350  -10.6670  -18.7540 O.3   1866  TIP1855    -0.4105
   5760 H1         -2.6410  -10.9150  -19.6260 H     1866  TIP1855     0.2052
   5761 H2         -1.4240  -10.9600  -18.7280 H     1866  TIP1855     0.2052
   5762 OH2       -17.2240  -17.5950   12.1880 O.3   1867  TIP1856    -0.4105
   5763 H1        -17.7940  -18.3130   11.9120 H     1867  TIP1856     0.2052
   5764 H2        -16.5250  -17.5790   11.5340 H     1867  TIP1856     0.2052
   5765 OH2         4.1410   -7.0990   17.5300 O.3   1868  TIP1857    -0.4105
   5766 H1          3.9810   -8.0110   17.2900 H     1868  TIP1857     0.2052
   5767 H2          3.9990   -7.0720   18.4760 H     1868  TIP1857     0.2052
   5768 OH2         5.2330   -1.5540  -16.7250 O.3   1869  TIP1858    -0.4105
   5769 H1          4.4440   -1.9700  -17.0730 H     1869  TIP1858     0.2052
   5770 H2          5.5980   -2.2000  -16.1210 H     1869  TIP1858     0.2052
   5771 OH2        16.2630    5.9680    4.6790 O.3   1870  TIP1859    -0.4105
   5772 H1         15.8290    6.3000    3.8930 H     1870  TIP1859     0.2052
   5773 H2         16.0720    5.0300    4.6800 H     1870  TIP1859     0.2052
   5774 OH2        23.0040   14.1260    4.7350 O.3   1871  TIP1860    -0.4105
   5775 H1         23.7490   13.5600    4.9410 H     1871  TIP1860     0.2052
   5776 H2         22.5950   14.3020    5.5830 H     1871  TIP1860     0.2052
   5777 OH2       -10.1580   -7.5600  -22.9700 O.3   1872  TIP1861    -0.4105
   5778 H1        -10.5810   -8.2450  -23.4880 H     1872  TIP1861     0.2052
   5779 H2        -10.8430   -6.9060  -22.8320 H     1872  TIP1861     0.2052
   5780 OH2        -0.0110  -24.2270   -9.4100 O.3   1873  TIP1862    -0.4105
   5781 H1          0.4230  -24.2280  -10.2630 H     1873  TIP1862     0.2052
   5782 H2          0.2570  -25.0520   -9.0040 H     1873  TIP1862     0.2052
   5783 OH2        22.0240  -11.2250   -7.6030 O.3   1874  TIP1863    -0.4105
   5784 H1         21.1490  -11.5010   -7.3310 H     1874  TIP1863     0.2052
   5785 H2         22.2180  -11.7630   -8.3700 H     1874  TIP1863     0.2052
   5786 OH2        -5.2480  -10.4800   23.2210 O.3   1875  TIP1864    -0.4105
   5787 H1         -4.5400  -11.0910   23.0170 H     1875  TIP1864     0.2052
   5788 H2         -5.6750  -10.8560   23.9910 H     1875  TIP1864     0.2052
   5789 OH2        -4.6570    6.7830   10.7440 O.3   1876  TIP1865    -0.4105
   5790 H1         -4.3910    7.2570    9.9560 H     1876  TIP1865     0.2052
   5791 H2         -4.5180    7.4060   11.4570 H     1876  TIP1865     0.2052
   5792 OH2       -12.6690    4.8860   14.3040 O.3   1877  TIP1866    -0.4105
   5793 H1        -12.6020    5.3800   13.4870 H     1877  TIP1866     0.2052
   5794 H2        -12.2850    4.0330   14.1000 H     1877  TIP1866     0.2052
   5795 OH2        23.1740   10.0120  -12.1730 O.3   1878  TIP1867    -0.4105
   5796 H1         24.0030   10.3220  -12.5390 H     1878  TIP1867     0.2052
   5797 H2         22.5370   10.6820  -12.4210 H     1878  TIP1867     0.2052
   5798 OH2        12.1230    6.3350    5.1410 O.3   1879  TIP1868    -0.4105
   5799 H1         12.3350    6.3480    6.0740 H     1879  TIP1868     0.2052
   5800 H2         11.8310    5.4390    4.9730 H     1879  TIP1868     0.2052
   5801 OH2       -10.1170  -15.6170   16.5150 O.3   1880  TIP1869    -0.4105
   5802 H1        -10.6500  -14.9980   17.0150 H     1880  TIP1869     0.2052
   5803 H2         -9.2320  -15.5090   16.8650 H     1880  TIP1869     0.2052
   5804 OH2        -2.7510  -12.3320   34.8260 O.3   1881  TIP1870    -0.4105
   5805 H1         -2.5980  -12.2850   33.8820 H     1881  TIP1870     0.2052
   5806 H2         -2.0200  -12.8500   35.1620 H     1881  TIP1870     0.2052
   5807 OH2         3.1630  -11.6930   20.4760 O.3   1882  TIP1871    -0.4105
   5808 H1          2.8120  -11.2250   19.7190 H     1882  TIP1871     0.2052
   5809 H2          3.4690  -11.0030   21.0640 H     1882  TIP1871     0.2052
   5810 OH2        -3.1310   22.4150  -22.0240 O.3   1883  TIP1872    -0.4105
   5811 H1         -4.0020   22.0470  -22.1740 H     1883  TIP1872     0.2052
   5812 H2         -2.6340   21.7000  -21.6250 H     1883  TIP1872     0.2052
   5813 OH2       -29.6420    0.4820   -1.9450 O.3   1884  TIP1873    -0.4105
   5814 H1        -29.8650   -0.3830   -2.2880 H     1884  TIP1873     0.2052
   5815 H2        -28.6880    0.5230   -2.0000 H     1884  TIP1873     0.2052
   5816 OH2         6.9930   13.1200  -17.0280 O.3   1885  TIP1874    -0.4105
   5817 H1          6.9000   13.1210  -16.0760 H     1885  TIP1874     0.2052
   5818 H2          6.1960   13.5450  -17.3470 H     1885  TIP1874     0.2052
   5819 OH2        12.8750   -6.0350  -14.1270 O.3   1886  TIP1875    -0.4105
   5820 H1         12.5000   -6.6840  -14.7220 H     1886  TIP1875     0.2052
   5821 H2         12.1360   -5.7460  -13.5920 H     1886  TIP1875     0.2052
   5822 OH2        -5.6890   19.3730   -2.2550 O.3   1887  TIP1876    -0.4105
   5823 H1         -6.2810   20.0520   -2.5780 H     1887  TIP1876     0.2052
   5824 H2         -4.9830   19.8540   -1.8240 H     1887  TIP1876     0.2052
   5825 OH2         7.4490    7.3330   24.5250 O.3   1888  TIP1877    -0.4105
   5826 H1          7.3810    6.4430   24.8710 H     1888  TIP1877     0.2052
   5827 H2          7.3380    7.2320   23.5800 H     1888  TIP1877     0.2052
   5828 OH2        16.8740  -31.5690    5.8140 O.3   1889  TIP1878    -0.4105
   5829 H1         15.9560  -31.6380    6.0750 H     1889  TIP1878     0.2052
   5830 H2         17.3660  -31.7620    6.6120 H     1889  TIP1878     0.2052
   5831 OH2        10.0930   -1.4290   16.4800 O.3   1890  TIP1879    -0.4105
   5832 H1         10.2340   -1.4080   17.4270 H     1890  TIP1879     0.2052
   5833 H2         10.9720   -1.3750   16.1050 H     1890  TIP1879     0.2052
   5834 OH2       -15.7300   12.0540    8.3440 O.3   1891  TIP1880    -0.4105
   5835 H1        -15.2870   12.6230    7.7140 H     1891  TIP1880     0.2052
   5836 H2        -16.5050   11.7390    7.8790 H     1891  TIP1880     0.2052
   5837 OH2       -23.3600  -12.8090  -14.6760 O.3   1892  TIP1881    -0.4105
   5838 H1        -22.4460  -12.6780  -14.9270 H     1892  TIP1881     0.2052
   5839 H2        -23.5830  -13.6730  -15.0210 H     1892  TIP1881     0.2052
   5840 OH2       -13.0090   11.6370  -21.8130 O.3   1893  TIP1882    -0.4105
   5841 H1        -13.1650   10.9000  -21.2230 H     1893  TIP1882     0.2052
   5842 H2        -12.8260   12.3750  -21.2320 H     1893  TIP1882     0.2052
   5843 OH2       -28.4420   19.7870    5.0750 O.3   1894  TIP1883    -0.4105
   5844 H1        -27.8780   20.4960    5.3870 H     1894  TIP1883     0.2052
   5845 H2        -29.1620   20.2320    4.6290 H     1894  TIP1883     0.2052
   5846 OH2        -3.4090  -26.7650    1.1150 O.3   1895  TIP1884    -0.4105
   5847 H1         -3.6700  -27.4170    0.4640 H     1895  TIP1884     0.2052
   5848 H2         -4.2170  -26.2950    1.3200 H     1895  TIP1884     0.2052
   5849 OH2        10.2040    7.0840   25.7790 O.3   1896  TIP1885    -0.4105
   5850 H1         10.8270    7.7620   25.5150 H     1896  TIP1885     0.2052
   5851 H2          9.3550    7.4080   25.4800 H     1896  TIP1885     0.2052
   5852 OH2       -32.8060    3.0600    1.8190 O.3   1897  TIP1886    -0.4105
   5853 H1        -32.4270    2.3110    1.3590 H     1897  TIP1886     0.2052
   5854 H2        -33.0290    2.7220    2.6860 H     1897  TIP1886     0.2052
   5855 OH2        10.8400   13.9440   32.3600 O.3   1898  TIP1887    -0.4105
   5856 H1         11.5700   14.5610   32.4150 H     1898  TIP1887     0.2052
   5857 H2         10.0910   14.4800   32.1000 H     1898  TIP1887     0.2052
   5858 OH2        -4.5470    3.3290  -18.6260 O.3   1899  TIP1888    -0.4105
   5859 H1         -4.7860    4.0620  -18.0580 H     1899  TIP1888     0.2052
   5860 H2         -5.2520    2.6930  -18.5050 H     1899  TIP1888     0.2052
   5861 OH2        -3.8040   13.7720   -9.0490 O.3   1900  TIP1889    -0.4105
   5862 H1         -3.3310   14.4490   -8.5650 H     1900  TIP1889     0.2052
   5863 H2         -4.6540   13.7150   -8.6140 H     1900  TIP1889     0.2052
   5864 OH2        -2.7560    1.5410   -8.2250 O.3   1901  TIP1890    -0.4105
   5865 H1         -3.5720    1.3090   -7.7820 H     1901  TIP1890     0.2052
   5866 H2         -3.0160    1.7230   -9.1280 H     1901  TIP1890     0.2052
   5867 OH2        10.5310  -19.1470  -13.4270 O.3   1902  TIP1891    -0.4105
   5868 H1         10.6700  -19.8370  -12.7780 H     1902  TIP1891     0.2052
   5869 H2          9.5920  -19.1790  -13.6130 H     1902  TIP1891     0.2052
   5870 OH2       -12.7500   -0.8670   -7.7500 O.3   1903  TIP1892    -0.4105
   5871 H1        -12.6530   -1.8190   -7.7550 H     1903  TIP1892     0.2052
   5872 H2        -13.4370   -0.6990   -7.1050 H     1903  TIP1892     0.2052
   5873 OH2       -13.9620   16.0110    6.4970 O.3   1904  TIP1893    -0.4105
   5874 H1        -13.1960   16.5660    6.3510 H     1904  TIP1893     0.2052
   5875 H2        -14.4110   15.9940    5.6520 H     1904  TIP1893     0.2052
   5876 OH2        18.6660  -22.5400    6.6260 O.3   1905  TIP1894    -0.4105
   5877 H1         19.0870  -22.6680    5.7760 H     1905  TIP1894     0.2052
   5878 H2         18.4740  -23.4260    6.9340 H     1905  TIP1894     0.2052
   5879 OH2        18.0580    6.1220  -11.5450 O.3   1906  TIP1895    -0.4105
   5880 H1         17.1770    5.7480  -11.5400 H     1906  TIP1895     0.2052
   5881 H2         18.4650    5.7670  -12.3350 H     1906  TIP1895     0.2052
   5882 OH2       -27.4140  -10.9140    9.8440 O.3   1907  TIP1896    -0.4105
   5883 H1        -26.6350  -11.0060   10.3920 H     1907  TIP1896     0.2052
   5884 H2        -27.3610  -10.0230    9.4980 H     1907  TIP1896     0.2052
   5885 OH2        11.7500   18.7030   -0.5170 O.3   1908  TIP1897    -0.4105
   5886 H1         11.4920   18.7850    0.4020 H     1908  TIP1897     0.2052
   5887 H2         11.5040   19.5400   -0.9110 H     1908  TIP1897     0.2052
   5888 OH2       -25.0130   -9.4150   -7.5600 O.3   1909  TIP1898    -0.4105
   5889 H1        -24.5360  -10.2440   -7.5990 H     1909  TIP1898     0.2052
   5890 H2        -24.6090   -8.8730   -8.2380 H     1909  TIP1898     0.2052
   5891 OH2         6.9450   17.9880  -20.1080 O.3   1910  TIP1899    -0.4105
   5892 H1          7.0190   18.1690  -19.1720 H     1910  TIP1899     0.2052
   5893 H2          6.2080   17.3810  -20.1780 H     1910  TIP1899     0.2052
   5894 OH2        -4.9350  -22.6260    7.9050 O.3   1911  TIP1900    -0.4105
   5895 H1         -5.4830  -22.9480    7.1900 H     1911  TIP1900     0.2052
   5896 H2         -4.1450  -23.1660    7.8640 H     1911  TIP1900     0.2052
   5897 OH2        14.5460  -24.5590   -9.0670 O.3   1912  TIP1901    -0.4105
   5898 H1         14.6500  -23.6500   -8.7830 H     1912  TIP1901     0.2052
   5899 H2         14.6430  -24.5250  -10.0190 H     1912  TIP1901     0.2052
   5900 OH2         2.7290   -8.5740  -22.6170 O.3   1913  TIP1902    -0.4105
   5901 H1          2.4190   -8.9880  -23.4230 H     1913  TIP1902     0.2052
   5902 H2          2.5090   -7.6480  -22.7240 H     1913  TIP1902     0.2052
   5903 OH2         0.9370  -15.9270  -15.5860 O.3   1914  TIP1903    -0.4105
   5904 H1          0.0600  -15.8210  -15.9560 H     1914  TIP1903     0.2052
   5905 H2          1.4250  -16.4030  -16.2590 H     1914  TIP1903     0.2052
   5906 OH2        28.4920   -3.3880   -8.0960 O.3   1915  TIP1904    -0.4105
   5907 H1         28.0130   -2.6000   -8.3490 H     1915  TIP1904     0.2052
   5908 H2         28.7940   -3.2110   -7.2050 H     1915  TIP1904     0.2052
   5909 OH2       -10.0180  -13.8080    1.0280 O.3   1916  TIP1905    -0.4105
   5910 H1        -10.4990  -13.2170    0.4480 H     1916  TIP1905     0.2052
   5911 H2        -10.1930  -13.4740    1.9080 H     1916  TIP1905     0.2052
   5912 OH2       -10.1050  -17.8790   33.3700 O.3   1917  TIP1906    -0.4105
   5913 H1        -10.9000  -18.4070   33.4440 H     1917  TIP1906     0.2052
   5914 H2        -10.0860  -17.3590   34.1730 H     1917  TIP1906     0.2052
   5915 OH2       -21.2760   33.4970   -3.3410 O.3   1918  TIP1907    -0.4105
   5916 H1        -22.1050   33.9690   -3.4130 H     1918  TIP1907     0.2052
   5917 H2        -20.6440   34.0500   -3.8000 H     1918  TIP1907     0.2052
   5918 OH2       -15.4030   29.1060   -4.3370 O.3   1919  TIP1908    -0.4105
   5919 H1        -15.5830   28.9850   -3.4040 H     1919  TIP1908     0.2052
   5920 H2        -16.2580   29.2980   -4.7230 H     1919  TIP1908     0.2052
   5921 OH2        28.2370   -0.3210   -4.5170 O.3   1920  TIP1909    -0.4105
   5922 H1         28.5840    0.5410   -4.2890 H     1920  TIP1909     0.2052
   5923 H2         27.6460   -0.1550   -5.2520 H     1920  TIP1909     0.2052
   5924 OH2        14.5690   10.9240  -24.6760 O.3   1921  TIP1910    -0.4105
   5925 H1         14.9150   10.1360  -24.2580 H     1921  TIP1910     0.2052
   5926 H2         13.8120   11.1660  -24.1420 H     1921  TIP1910     0.2052
   5927 OH2         5.6360  -29.0210  -13.4480 O.3   1922  TIP1911    -0.4105
   5928 H1          5.5230  -28.0860  -13.2790 H     1922  TIP1911     0.2052
   5929 H2          6.2620  -29.0600  -14.1710 H     1922  TIP1911     0.2052
   5930 OH2       -27.7820   -6.8260   11.2550 O.3   1923  TIP1912    -0.4105
   5931 H1        -26.8850   -7.1600   11.2770 H     1923  TIP1912     0.2052
   5932 H2        -28.2160   -7.3480   10.5800 H     1923  TIP1912     0.2052
   5933 OH2         7.6830  -11.8520   -0.3830 O.3   1924  TIP1913    -0.4105
   5934 H1          7.8600  -12.1910    0.4950 H     1924  TIP1913     0.2052
   5935 H2          8.1130  -10.9970   -0.4010 H     1924  TIP1913     0.2052
   5936 OH2       -10.8040   26.4280    0.2750 O.3   1925  TIP1914    -0.4105
   5937 H1        -10.0300   26.5110   -0.2820 H     1925  TIP1914     0.2052
   5938 H2        -10.6310   27.0110    1.0150 H     1925  TIP1914     0.2052
   5939 OH2        21.3910   -0.6300  -12.1410 O.3   1926  TIP1915    -0.4105
   5940 H1         21.9580   -0.5970  -12.9110 H     1926  TIP1915     0.2052
   5941 H2         21.1910   -1.5600  -12.0300 H     1926  TIP1915     0.2052
   5942 OH2         0.8050   12.9450    1.5600 O.3   1927  TIP1916    -0.4105
   5943 H1          0.1600   12.5190    2.1250 H     1927  TIP1916     0.2052
   5944 H2          0.3100   13.6210    1.0970 H     1927  TIP1916     0.2052
   5945 OH2        -6.7300    9.7270   -2.8250 O.3   1928  TIP1917    -0.4105
   5946 H1         -6.1690    9.1810   -2.2740 H     1928  TIP1917     0.2052
   5947 H2         -6.9900    9.1530   -3.5460 H     1928  TIP1917     0.2052
   5948 OH2         0.4760   -1.3360  -29.4860 O.3   1929  TIP1918    -0.4105
   5949 H1          0.7570   -1.6620  -30.3410 H     1929  TIP1918     0.2052
   5950 H2          1.0520   -1.7750  -28.8600 H     1929  TIP1918     0.2052
   5951 OH2         9.4150    6.2730  -17.3820 O.3   1930  TIP1919    -0.4105
   5952 H1          9.4860    5.9580  -18.2830 H     1930  TIP1919     0.2052
   5953 H2         10.2930    6.1600  -17.0190 H     1930  TIP1919     0.2052
   5954 OH2       -11.0310   20.5480   -0.7970 O.3   1931  TIP1920    -0.4105
   5955 H1        -11.0830   21.4760   -1.0260 H     1931  TIP1920     0.2052
   5956 H2        -10.7810   20.5420    0.1270 H     1931  TIP1920     0.2052
   5957 OH2         0.2250  -18.7650   -0.7380 O.3   1932  TIP1921    -0.4105
   5958 H1          0.8000  -19.4560   -0.4100 H     1932  TIP1921     0.2052
   5959 H2         -0.6600  -19.0890   -0.5690 H     1932  TIP1921     0.2052
   5960 OH2        -2.2870   -7.1480  -26.8640 O.3   1933  TIP1922    -0.4105
   5961 H1         -2.5420   -6.3080  -26.4840 H     1933  TIP1922     0.2052
   5962 H2         -1.9710   -7.6620  -26.1210 H     1933  TIP1922     0.2052
   5963 OH2        16.9640   16.2400    7.5150 O.3   1934  TIP1923    -0.4105
   5964 H1         16.0150   16.3450    7.5850 H     1934  TIP1923     0.2052
   5965 H2         17.2500   16.0340    8.4050 H     1934  TIP1923     0.2052
   5966 OH2        -0.0680   17.7810   18.1610 O.3   1935  TIP1924    -0.4105
   5967 H1          0.8270   17.4920   18.3440 H     1935  TIP1924     0.2052
   5968 H2         -0.4890   17.0180   17.7640 H     1935  TIP1924     0.2052
   5969 OH2        -6.8460  -20.1200    4.6070 O.3   1936  TIP1925    -0.4105
   5970 H1         -7.7880  -20.2790    4.6630 H     1936  TIP1925     0.2052
   5971 H2         -6.6690  -20.0570    3.6680 H     1936  TIP1925     0.2052
   5972 OH2        -7.2690    5.6540   25.2250 O.3   1937  TIP1926    -0.4105
   5973 H1         -7.4630    5.7030   26.1610 H     1937  TIP1926     0.2052
   5974 H2         -6.3450    5.4070   25.1830 H     1937  TIP1926     0.2052
   5975 OH2       -21.4570   32.1970    3.4640 O.3   1938  TIP1927    -0.4105
   5976 H1        -21.8620   33.0530    3.3240 H     1938  TIP1927     0.2052
   5977 H2        -21.6650   31.9780    4.3720 H     1938  TIP1927     0.2052
   5978 OH2         0.2180   18.9470    5.9550 O.3   1939  TIP1928    -0.4105
   5979 H1          0.4120   19.7700    5.5050 H     1939  TIP1928     0.2052
   5980 H2          1.0380   18.7110    6.3880 H     1939  TIP1928     0.2052
   5981 OH2        16.4630   -4.3080    0.9280 O.3   1940  TIP1929    -0.4105
   5982 H1         16.2690   -4.9530    0.2480 H     1940  TIP1929     0.2052
   5983 H2         17.3230   -3.9620    0.6920 H     1940  TIP1929     0.2052
   5984 OH2       -38.6700   -8.9110    4.8890 O.3   1941  TIP1930    -0.4105
   5985 H1        -38.0850   -9.6650    4.9570 H     1941  TIP1930     0.2052
   5986 H2        -39.2660   -9.1330    4.1730 H     1941  TIP1930     0.2052
   5987 OH2       -13.3840  -12.6470  -11.9220 O.3   1942  TIP1931    -0.4105
   5988 H1        -12.9280  -13.0920  -11.2080 H     1942  TIP1931     0.2052
   5989 H2        -13.5880  -13.3430  -12.5470 H     1942  TIP1931     0.2052
   5990 OH2         3.4520   -4.2230   19.7330 O.3   1943  TIP1932    -0.4105
   5991 H1          3.3970   -4.2170   20.6890 H     1943  TIP1932     0.2052
   5992 H2          2.5630   -4.4310   19.4440 H     1943  TIP1932     0.2052
   5993 OH2         7.1350  -21.2330   12.4180 O.3   1944  TIP1933    -0.4105
   5994 H1          7.4710  -20.7690   13.1840 H     1944  TIP1933     0.2052
   5995 H2          6.3240  -21.6420   12.7210 H     1944  TIP1933     0.2052
   5996 OH2       -28.1420  -10.3700   13.4450 O.3   1945  TIP1934    -0.4105
   5997 H1        -27.2740  -10.2830   13.0500 H     1945  TIP1934     0.2052
   5998 H2        -28.0860   -9.8710   14.2600 H     1945  TIP1934     0.2052
   5999 OH2        26.5270    3.7810  -14.5420 O.3   1946  TIP1935    -0.4105
   6000 H1         26.9730    4.5020  -14.9870 H     1946  TIP1935     0.2052
   6001 H2         26.8310    3.8340  -13.6360 H     1946  TIP1935     0.2052
   6002 OH2        20.5210   -0.6670   10.5480 O.3   1947  TIP1936    -0.4105
   6003 H1         20.2020   -0.5730    9.6500 H     1947  TIP1936     0.2052
   6004 H2         21.3180   -0.1370   10.5760 H     1947  TIP1936     0.2052
   6005 OH2         0.0910   20.4470   12.8530 O.3   1948  TIP1937    -0.4105
   6006 H1          0.0140   19.9540   12.0360 H     1948  TIP1937     0.2052
   6007 H2         -0.0150   19.7900   13.5410 H     1948  TIP1937     0.2052
   6008 OH2         5.9610   24.7140    6.5600 O.3   1949  TIP1938    -0.4105
   6009 H1          6.5690   24.5780    5.8330 H     1949  TIP1938     0.2052
   6010 H2          5.8670   25.6650    6.6180 H     1949  TIP1938     0.2052
   6011 OH2         4.4130   -7.8360   25.6460 O.3   1950  TIP1939    -0.4105
   6012 H1          4.6030   -8.7290   25.3600 H     1950  TIP1939     0.2052
   6013 H2          3.5500   -7.6450   25.2780 H     1950  TIP1939     0.2052
   6014 OH2        -9.5700   16.3960  -13.7840 O.3   1951  TIP1940    -0.4105
   6015 H1         -9.2840   15.5710  -13.3930 H     1951  TIP1940     0.2052
   6016 H2        -10.5260   16.3550  -13.7600 H     1951  TIP1940     0.2052
   6017 OH2       -13.8420   -0.3110  -22.6380 O.3   1952  TIP1941    -0.4105
   6018 H1        -13.4490    0.0240  -23.4440 H     1952  TIP1941     0.2052
   6019 H2        -14.6590   -0.7210  -22.9220 H     1952  TIP1941     0.2052
   6020 OH2        -2.8500   27.5380   16.1760 O.3   1953  TIP1942    -0.4105
   6021 H1         -2.0160   27.6880   15.7310 H     1953  TIP1942     0.2052
   6022 H2         -3.4930   28.0070   15.6440 H     1953  TIP1942     0.2052
   6023 OH2       -16.4610  -12.2250   18.6870 O.3   1954  TIP1943    -0.4105
   6024 H1        -17.1040  -12.0420   18.0030 H     1954  TIP1943     0.2052
   6025 H2        -15.8910  -11.4570   18.6930 H     1954  TIP1943     0.2052
   6026 OH2         0.1480   -9.1340   -1.9120 O.3   1955  TIP1944    -0.4105
   6027 H1          0.8230   -8.6680   -2.4050 H     1955  TIP1944     0.2052
   6028 H2          0.5290   -9.9950   -1.7380 H     1955  TIP1944     0.2052
   6029 OH2         0.2040    3.1850   -8.5890 O.3   1956  TIP1945    -0.4105
   6030 H1          0.7970    2.7790   -9.2210 H     1956  TIP1945     0.2052
   6031 H2         -0.2890    2.4540   -8.2180 H     1956  TIP1945     0.2052
   6032 OH2        11.8980    9.2200  -22.9860 O.3   1957  TIP1946    -0.4105
   6033 H1         12.6210    9.5390  -22.4470 H     1957  TIP1946     0.2052
   6034 H2         11.1580    9.7810  -22.7520 H     1957  TIP1946     0.2052
   6035 OH2         5.2280   -8.8930   -9.0090 O.3   1958  TIP1947    -0.4105
   6036 H1          5.2710   -9.6040   -9.6490 H     1958  TIP1947     0.2052
   6037 H2          4.2920   -8.7200   -8.9060 H     1958  TIP1947     0.2052
   6038 OH2        -3.3420    7.4710   -9.9420 O.3   1959  TIP1948    -0.4105
   6039 H1         -2.6960    7.7510  -10.5910 H     1959  TIP1948     0.2052
   6040 H2         -3.0510    6.5990   -9.6750 H     1959  TIP1948     0.2052
   6041 OH2         8.1400  -29.7260   -7.9030 O.3   1960  TIP1949    -0.4105
   6042 H1          7.8050  -30.6230   -7.8930 H     1960  TIP1949     0.2052
   6043 H2          7.3570  -29.1770   -7.8610 H     1960  TIP1949     0.2052
   6044 OH2        -5.3310   17.3970    0.5270 O.3   1961  TIP1950    -0.4105
   6045 H1         -5.9790   17.7250    1.1500 H     1961  TIP1950     0.2052
   6046 H2         -4.6830   18.0980    0.4630 H     1961  TIP1950     0.2052
   6047 OH2       -19.1950   25.2160    5.0780 O.3   1962  TIP1951    -0.4105
   6048 H1        -18.6210   25.9520    4.8640 H     1962  TIP1951     0.2052
   6049 H2        -19.1860   25.1750    6.0340 H     1962  TIP1951     0.2052
   6050 OH2        -0.6940  -19.1090  -22.5290 O.3   1963  TIP1952    -0.4105
   6051 H1         -0.0710  -18.5280  -22.0930 H     1963  TIP1952     0.2052
   6052 H2         -0.8810  -19.7900  -21.8830 H     1963  TIP1952     0.2052
   6053 OH2       -17.3750   27.9000   -8.2110 O.3   1964  TIP1953    -0.4105
   6054 H1        -18.0890   28.4590   -7.9020 H     1964  TIP1953     0.2052
   6055 H2        -16.5990   28.2300   -7.7580 H     1964  TIP1953     0.2052
   6056 OH2        32.5690    3.7930   -5.4590 O.3   1965  TIP1954    -0.4105
   6057 H1         32.1450    4.4370   -4.8920 H     1965  TIP1954     0.2052
   6058 H2         31.9630    3.6820   -6.1910 H     1965  TIP1954     0.2052
   6059 OH2        -0.5550   15.1240   13.6360 O.3   1966  TIP1955    -0.4105
   6060 H1         -0.0310   14.3570   13.8650 H     1966  TIP1955     0.2052
   6061 H2         -1.4550   14.8700   13.8410 H     1966  TIP1955     0.2052
   6062 OH2        -9.3520   26.1230   11.1340 O.3   1967  TIP1956    -0.4105
   6063 H1         -9.5880   25.5390   10.4130 H     1967  TIP1956     0.2052
   6064 H2         -8.4230   26.3070   10.9990 H     1967  TIP1956     0.2052
   6065 OH2         3.9750   13.2870  -23.1440 O.3   1968  TIP1957    -0.4105
   6066 H1          3.2600   12.6620  -23.0170 H     1968  TIP1957     0.2052
   6067 H2          3.5490   14.0720  -23.4880 H     1968  TIP1957     0.2052
   6068 OH2       -17.6240   26.2390  -10.7530 O.3   1969  TIP1958    -0.4105
   6069 H1        -17.0750   26.7230  -10.1370 H     1969  TIP1958     0.2052
   6070 H2        -17.9000   26.8930  -11.3950 H     1969  TIP1958     0.2052
   6071 OH2         2.8120   23.0860  -13.4140 O.3   1970  TIP1959    -0.4105
   6072 H1          2.5320   23.4500  -12.5740 H     1970  TIP1959     0.2052
   6073 H2          2.3190   22.2700  -13.4980 H     1970  TIP1959     0.2052
   6074 OH2        24.8170   16.3020    7.5130 O.3   1971  TIP1960    -0.4105
   6075 H1         24.9400   15.3600    7.3940 H     1971  TIP1960     0.2052
   6076 H2         25.6820   16.6270    7.7630 H     1971  TIP1960     0.2052
   6077 OH2        20.5730  -20.4760   -8.1070 O.3   1972  TIP1961    -0.4105
   6078 H1         21.0200  -19.7910   -8.6040 H     1972  TIP1961     0.2052
   6079 H2         21.1240  -20.6120   -7.3360 H     1972  TIP1961     0.2052
   6080 OH2        12.6130   16.7740  -10.0050 O.3   1973  TIP1962    -0.4105
   6081 H1         12.8200   17.6480   -9.6750 H     1973  TIP1962     0.2052
   6082 H2         11.6570   16.7280   -9.9790 H     1973  TIP1962     0.2052
   6083 OH2        -1.8130   24.9410    1.1770 O.3   1974  TIP1963    -0.4105
   6084 H1         -1.1560   24.2500    1.0980 H     1974  TIP1963     0.2052
   6085 H2         -2.6510   24.4870    1.0950 H     1974  TIP1963     0.2052
   6086 OH2        -1.8920  -22.3200  -10.0970 O.3   1975  TIP1964    -0.4105
   6087 H1         -1.2690  -23.0160   -9.8880 H     1975  TIP1964     0.2052
   6088 H2         -2.3390  -22.1410   -9.2700 H     1975  TIP1964     0.2052
   6089 OH2        35.9760   -0.2440   -5.9440 O.3   1976  TIP1965    -0.4105
   6090 H1         35.9500    0.5120   -6.5300 H     1976  TIP1965     0.2052
   6091 H2         36.8030   -0.1520   -5.4700 H     1976  TIP1965     0.2052
   6092 OH2        -5.1590   17.9240   12.8030 O.3   1977  TIP1966    -0.4105
   6093 H1         -4.6390   17.1250   12.7160 H     1977  TIP1966     0.2052
   6094 H2         -4.5150   18.6320   12.7870 H     1977  TIP1966     0.2052
   6095 OH2        -9.8040  -12.2430   16.8760 O.3   1978  TIP1967    -0.4105
   6096 H1         -9.5700  -12.0100   15.9780 H     1978  TIP1967     0.2052
   6097 H2         -9.1320  -11.8260   17.4150 H     1978  TIP1967     0.2052
   6098 OH2        -5.8770   12.8830  -15.8890 O.3   1979  TIP1968    -0.4105
   6099 H1         -6.8310   12.9570  -15.8720 H     1979  TIP1968     0.2052
   6100 H2         -5.6010   13.1490  -15.0120 H     1979  TIP1968     0.2052
   6101 OH2       -12.0500   21.4110    7.5570 O.3   1980  TIP1969    -0.4105
   6102 H1        -12.7080   22.1020    7.4840 H     1980  TIP1969     0.2052
   6103 H2        -12.5160   20.6770    7.9570 H     1980  TIP1969     0.2052
   6104 OH2        13.1880   -2.8140    0.9090 O.3   1981  TIP1970    -0.4105
   6105 H1         13.7330   -2.8280    1.6960 H     1981  TIP1970     0.2052
   6106 H2         12.3590   -2.4330    1.1980 H     1981  TIP1970     0.2052
   6107 OH2       -12.9430   28.6370   -5.5870 O.3   1982  TIP1971    -0.4105
   6108 H1        -12.4780   27.8720   -5.2490 H     1982  TIP1971     0.2052
   6109 H2        -13.8150   28.5790   -5.1970 H     1982  TIP1971     0.2052
   6110 OH2         6.6000  -15.9360   -9.6600 O.3   1983  TIP1972    -0.4105
   6111 H1          7.5190  -16.1630   -9.5190 H     1983  TIP1972     0.2052
   6112 H2          6.1190  -16.4810   -9.0370 H     1983  TIP1972     0.2052
   6113 OH2        -4.1400  -21.3400   -2.5270 O.3   1984  TIP1973    -0.4105
   6114 H1         -4.8650  -20.7390   -2.3580 H     1984  TIP1973     0.2052
   6115 H2         -4.0200  -21.3090   -3.4760 H     1984  TIP1973     0.2052
   6116 OH2        -2.9380   -7.2540   18.8440 O.3   1985  TIP1974    -0.4105
   6117 H1         -3.3860   -7.0760   19.6710 H     1985  TIP1974     0.2052
   6118 H2         -3.5580   -7.7860   18.3450 H     1985  TIP1974     0.2052
   6119 OH2       -14.4110  -17.8960   21.2530 O.3   1986  TIP1975    -0.4105
   6120 H1        -14.6800  -18.7940   21.4490 H     1986  TIP1975     0.2052
   6121 H2        -14.0230  -17.5790   22.0690 H     1986  TIP1975     0.2052
   6122 OH2        -1.4890   10.6460  -31.4180 O.3   1987  TIP1976    -0.4105
   6123 H1         -0.8390    9.9760  -31.2080 H     1987  TIP1976     0.2052
   6124 H2         -1.9560   10.2980  -32.1780 H     1987  TIP1976     0.2052
   6125 OH2        -4.8200   23.3770   12.0850 O.3   1988  TIP1977    -0.4105
   6126 H1         -4.0770   22.9820   11.6290 H     1988  TIP1977     0.2052
   6127 H2         -5.5170   22.7250   12.0160 H     1988  TIP1977     0.2052
   6128 OH2       -20.0940   10.8620    2.2300 O.3   1989  TIP1978    -0.4105
   6129 H1        -19.6190   10.6060    1.4390 H     1989  TIP1978     0.2052
   6130 H2        -20.7050   10.1420    2.3860 H     1989  TIP1978     0.2052
   6131 OH2         6.3980  -27.0130  -10.5250 O.3   1990  TIP1979    -0.4105
   6132 H1          6.6500  -27.1670  -11.4350 H     1990  TIP1979     0.2052
   6133 H2          7.1590  -27.2910  -10.0150 H     1990  TIP1979     0.2052
   6134 OH2       -24.9400    2.1480   -1.8610 O.3   1991  TIP1980    -0.4105
   6135 H1        -25.5260    1.9330   -1.1350 H     1991  TIP1980     0.2052
   6136 H2        -25.1680    1.5200   -2.5470 H     1991  TIP1980     0.2052
   6137 OH2        -4.1840   31.9310   16.9530 O.3   1992  TIP1981    -0.4105
   6138 H1         -4.4750   32.4510   17.7020 H     1992  TIP1981     0.2052
   6139 H2         -3.3970   32.3780   16.6410 H     1992  TIP1981     0.2052
   6140 OH2        27.7740   -0.8620   -9.0190 O.3   1993  TIP1982    -0.4105
   6141 H1         28.1240    0.0280   -9.0600 H     1993  TIP1982     0.2052
   6142 H2         28.1590   -1.3070   -9.7730 H     1993  TIP1982     0.2052
   6143 OH2        15.4420    0.6340   -2.1050 O.3   1994  TIP1983    -0.4105
   6144 H1         15.3310    1.1850   -2.8800 H     1994  TIP1983     0.2052
   6145 H2         16.3450    0.3220   -2.1590 H     1994  TIP1983     0.2052
   6146 OH2        -3.0660  -13.8320   14.6860 O.3   1995  TIP1984    -0.4105
   6147 H1         -3.7670  -13.6640   14.0560 H     1995  TIP1984     0.2052
   6148 H2         -2.5900  -13.0030   14.7420 H     1995  TIP1984     0.2052
   6149 OH2        21.8470   -6.4240    6.9560 O.3   1996  TIP1985    -0.4105
   6150 H1         22.4550   -6.6190    7.6690 H     1996  TIP1985     0.2052
   6151 H2         22.3640   -5.9120    6.3340 H     1996  TIP1985     0.2052
   6152 OH2        -2.3590   -9.0520   35.3160 O.3   1997  TIP1986    -0.4105
   6153 H1         -2.0140   -9.9140   35.0850 H     1997  TIP1986     0.2052
   6154 H2         -1.5840   -8.5360   35.5400 H     1997  TIP1986     0.2052
   6155 OH2         8.6930    0.1040   14.7900 O.3   1998  TIP1987    -0.4105
   6156 H1          9.0940   -0.0030   13.9280 H     1998  TIP1987     0.2052
   6157 H2          9.1680   -0.5070   15.3530 H     1998  TIP1987     0.2052
   6158 OH2         9.3110    6.2210  -23.2460 O.3   1999  TIP1988    -0.4105
   6159 H1          8.6280    6.8610  -23.4460 H     1999  TIP1988     0.2052
   6160 H2          8.8970    5.3720  -23.4020 H     1999  TIP1988     0.2052
   6161 OH2        12.9380  -12.7610    5.1240 O.3   2000  TIP1989    -0.4105
   6162 H1         13.0090  -13.5430    5.6720 H     2000  TIP1989     0.2052
   6163 H2         12.0110  -12.7150    4.8900 H     2000  TIP1989     0.2052
   6164 OH2       -15.3780   -7.2390   -0.0410 O.3   2001  TIP1990    -0.4105
   6165 H1        -14.6440   -7.8510    0.0070 H     2001  TIP1990     0.2052
   6166 H2        -15.9860   -7.6420   -0.6600 H     2001  TIP1990     0.2052
   6167 OH2        -7.4070    7.1850   12.4950 O.3   2002  TIP1991    -0.4105
   6168 H1         -7.2260    8.0180   12.0580 H     2002  TIP1991     0.2052
   6169 H2         -8.1440    7.3730   13.0750 H     2002  TIP1991     0.2052
   6170 OH2        -7.3790   -8.3360  -27.6270 O.3   2003  TIP1992    -0.4105
   6171 H1         -7.3170   -9.2510  -27.3530 H     2003  TIP1992     0.2052
   6172 H2         -7.8300   -7.8990  -26.9040 H     2003  TIP1992     0.2052
   6173 OH2        14.7570   11.8230  -27.2210 O.3   2004  TIP1993    -0.4105
   6174 H1         14.4470   11.5200  -26.3680 H     2004  TIP1993     0.2052
   6175 H2         15.6950   11.6320  -27.2180 H     2004  TIP1993     0.2052
   6176 OH2        -5.4670    0.8580   24.9830 O.3   2005  TIP1994    -0.4105
   6177 H1         -6.1200    1.2350   25.5730 H     2005  TIP1994     0.2052
   6178 H2         -5.3060    1.5440   24.3340 H     2005  TIP1994     0.2052
   6179 OH2        -1.0540   22.0680    3.2750 O.3   2006  TIP1995    -0.4105
   6180 H1         -0.7060   21.6310    2.4980 H     2006  TIP1995     0.2052
   6181 H2         -0.5240   22.8610    3.3620 H     2006  TIP1995     0.2052
   6182 OH2         2.6160  -26.1530    1.5020 O.3   2007  TIP1996    -0.4105
   6183 H1          2.8870  -26.7660    0.8190 H     2007  TIP1996     0.2052
   6184 H2          3.2310  -25.4230    1.4260 H     2007  TIP1996     0.2052
   6185 OH2         6.5670   -7.8950   19.3700 O.3   2008  TIP1997    -0.4105
   6186 H1          7.1050   -8.0980   18.6040 H     2008  TIP1997     0.2052
   6187 H2          5.7150   -8.2870   19.1760 H     2008  TIP1997     0.2052
   6188 OH2       -23.1370  -11.4430   -7.4220 O.3   2009  TIP1998    -0.4105
   6189 H1        -23.2300  -11.3630   -6.4730 H     2009  TIP1998     0.2052
   6190 H2        -23.4590  -12.3220   -7.6220 H     2009  TIP1998     0.2052
   6191 OH2        25.1580    6.1440   -8.9510 O.3   2010  TIP1999    -0.4105
   6192 H1         24.3180    6.3820   -9.3440 H     2010  TIP1999     0.2052
   6193 H2         25.1350    5.1890   -8.8960 H     2010  TIP1999     0.2052
   6194 OH2         1.6360  -20.9130  -17.1260 O.3   2011  TIP2000    -0.4105
   6195 H1          0.7630  -20.7620  -16.7630 H     2011  TIP2000     0.2052
   6196 H2          1.6380  -20.4330  -17.9540 H     2011  TIP2000     0.2052
   6197 OH2       -15.3090   -2.6040   -0.6120 O.3   2012  TIP2001    -0.4105
   6198 H1        -15.3030   -3.3720   -1.1830 H     2012  TIP2001     0.2052
   6199 H2        -14.8950   -2.9030    0.1980 H     2012  TIP2001     0.2052
   6200 OH2         7.5940   12.0780   -5.9350 O.3   2013  TIP2002    -0.4105
   6201 H1          7.5700   11.5680   -5.1250 H     2013  TIP2002     0.2052
   6202 H2          7.9960   11.4920   -6.5760 H     2013  TIP2002     0.2052
   6203 OH2       -12.5600   -3.6240   -6.9680 O.3   2014  TIP2003    -0.4105
   6204 H1        -12.4120   -4.5490   -7.1660 H     2014  TIP2003     0.2052
   6205 H2        -12.9360   -3.6240   -6.0880 H     2014  TIP2003     0.2052
   6206 OH2         9.9290  -21.0540   16.6190 O.3   2015  TIP2004    -0.4105
   6207 H1          9.5660  -21.9140   16.8330 H     2015  TIP2004     0.2052
   6208 H2         10.4540  -21.2040   15.8330 H     2015  TIP2004     0.2052
   6209 OH2        11.7010  -20.4290    1.7060 O.3   2016  TIP2005    -0.4105
   6210 H1         12.0660  -19.6190    1.3500 H     2016  TIP2005     0.2052
   6211 H2         12.0800  -20.4990    2.5820 H     2016  TIP2005     0.2052
   6212 OH2        23.0460   12.9840    2.2710 O.3   2017  TIP2006    -0.4105
   6213 H1         22.2610   13.0020    1.7240 H     2017  TIP2006     0.2052
   6214 H2         22.7470   13.2830    3.1300 H     2017  TIP2006     0.2052
   6215 OH2        33.6110   11.5000    1.6140 O.3   2018  TIP2007    -0.4105
   6216 H1         33.3390   11.6400    2.5210 H     2018  TIP2007     0.2052
   6217 H2         33.1520   10.7050    1.3460 H     2018  TIP2007     0.2052
   6218 OH2       -10.8350  -18.5160  -15.6940 O.3   2019  TIP2008    -0.4105
   6219 H1        -11.0440  -19.1830  -16.3480 H     2019  TIP2008     0.2052
   6220 H2        -11.0480  -18.9260  -14.8560 H     2019  TIP2008     0.2052
   6221 OH2       -24.2670    3.7640    1.1620 O.3   2020  TIP2009    -0.4105
   6222 H1        -24.7340    2.9340    1.2540 H     2020  TIP2009     0.2052
   6223 H2        -23.3570    3.5520    1.3730 H     2020  TIP2009     0.2052
   6224 OH2       -11.6820   15.8320    2.4490 O.3   2021  TIP2010    -0.4105
   6225 H1        -12.0730   14.9590    2.4560 H     2021  TIP2010     0.2052
   6226 H2        -10.7840   15.6950    2.7510 H     2021  TIP2010     0.2052
   6227 OH2        15.1790   12.8990    5.1570 O.3   2022  TIP2011    -0.4105
   6228 H1         14.8110   13.6070    4.6270 H     2022  TIP2011     0.2052
   6229 H2         16.1260   12.9850    5.0470 H     2022  TIP2011     0.2052
   6230 OH2       -19.6840   28.4340   -2.1130 O.3   2023  TIP2012    -0.4105
   6231 H1        -20.0140   29.1480   -2.6570 H     2023  TIP2012     0.2052
   6232 H2        -18.9310   28.0920   -2.5960 H     2023  TIP2012     0.2052
   6233 OH2       -16.0790  -13.6580    5.0670 O.3   2024  TIP2013    -0.4105
   6234 H1        -15.7740  -13.0360    5.7280 H     2024  TIP2013     0.2052
   6235 H2        -16.6250  -13.1360    4.4800 H     2024  TIP2013     0.2052
   6236 OH2         7.0150  -24.7050    4.9780 O.3   2025  TIP2014    -0.4105
   6237 H1          7.2270  -23.8460    4.6120 H     2025  TIP2014     0.2052
   6238 H2          6.3260  -24.5300    5.6190 H     2025  TIP2014     0.2052
   6239 OH2       -15.2120   10.8340   17.3600 O.3   2026  TIP2015    -0.4105
   6240 H1        -15.7520   10.5360   18.0920 H     2026  TIP2015     0.2052
   6241 H2        -14.3120   10.7510   17.6780 H     2026  TIP2015     0.2052
   6242 OH2       -17.8800  -12.8450  -16.0050 O.3   2027  TIP2016    -0.4105
   6243 H1        -18.1520  -13.6820  -16.3810 H     2027  TIP2016     0.2052
   6244 H2        -16.9770  -12.9910  -15.7210 H     2027  TIP2016     0.2052
   6245 OH2         9.6010  -17.8040   -3.6250 O.3   2028  TIP2017    -0.4105
   6246 H1          9.8250  -16.8770   -3.5400 H     2028  TIP2017     0.2052
   6247 H2          9.9880  -18.0690   -4.4590 H     2028  TIP2017     0.2052
   6248 OH2       -26.8940   14.2440   -0.1830 O.3   2029  TIP2018    -0.4105
   6249 H1        -26.6770   13.4300    0.2710 H     2029  TIP2018     0.2052
   6250 H2        -27.7360   14.0660   -0.6030 H     2029  TIP2018     0.2052
   6251 OH2       -14.3110    1.9110   -7.5180 O.3   2030  TIP2019    -0.4105
   6252 H1        -14.1980    1.5650   -6.6330 H     2030  TIP2019     0.2052
   6253 H2        -15.0650    2.4970   -7.4520 H     2030  TIP2019     0.2052
   6254 OH2         4.9250  -10.9310  -15.3870 O.3   2031  TIP2020    -0.4105
   6255 H1          5.6470  -11.4270  -15.0020 H     2031  TIP2020     0.2052
   6256 H2          4.5240  -10.4770  -14.6450 H     2031  TIP2020     0.2052
   6257 OH2        -1.4130   17.2290    8.9440 O.3   2032  TIP2021    -0.4105
   6258 H1         -1.2770   16.3640    8.5570 H     2032  TIP2021     0.2052
   6259 H2         -0.8580   17.8140    8.4280 H     2032  TIP2021     0.2052
   6260 OH2       -15.8210   13.4070    3.7350 O.3   2033  TIP2022    -0.4105
   6261 H1        -16.6520   13.1810    3.3180 H     2033  TIP2022     0.2052
   6262 H2        -16.0570   13.6330    4.6340 H     2033  TIP2022     0.2052
   6263 OH2       -20.1660   -6.5820  -17.3460 O.3   2034  TIP2023    -0.4105
   6264 H1        -20.7290   -7.0920  -17.9290 H     2034  TIP2023     0.2052
   6265 H2        -20.7220   -5.8630  -17.0450 H     2034  TIP2023     0.2052
   6266 OH2        18.0720  -10.0090    7.9790 O.3   2035  TIP2024    -0.4105
   6267 H1         17.8290  -10.7430    7.4140 H     2035  TIP2024     0.2052
   6268 H2         19.0230   -9.9490    7.8970 H     2035  TIP2024     0.2052
   6269 OH2       -29.4970    8.1180   10.8710 O.3   2036  TIP2025    -0.4105
   6270 H1        -29.7200    9.0310   11.0570 H     2036  TIP2025     0.2052
   6271 H2        -28.6050    8.0180   11.2020 H     2036  TIP2025     0.2052
   6272 OH2        -7.6900   -1.3470   20.6530 O.3   2037  TIP2026    -0.4105
   6273 H1         -7.4180   -2.2450   20.8410 H     2037  TIP2026     0.2052
   6274 H2         -7.2840   -0.8230   21.3440 H     2037  TIP2026     0.2052
   6275 OH2        13.2370    3.4100   25.0490 O.3   2038  TIP2027    -0.4105
   6276 H1         13.4590    4.1040   25.6690 H     2038  TIP2027     0.2052
   6277 H2         14.0680    3.1910   24.6270 H     2038  TIP2027     0.2052
   6278 OH2       -22.6730  -18.3180   -2.2940 O.3   2039  TIP2028    -0.4105
   6279 H1        -22.9270  -18.3540   -3.2170 H     2039  TIP2028     0.2052
   6280 H2        -21.7670  -18.0070   -2.3070 H     2039  TIP2028     0.2052
   6281 OH2        -3.9810    0.6560   14.9730 O.3   2040  TIP2029    -0.4105
   6282 H1         -4.4830    1.4260   15.2400 H     2040  TIP2029     0.2052
   6283 H2         -3.6810    0.2690   15.7950 H     2040  TIP2029     0.2052
   6284 OH2        32.5370    9.2010  -10.0350 O.3   2041  TIP2030    -0.4105
   6285 H1         32.2900    9.0650   -9.1200 H     2041  TIP2030     0.2052
   6286 H2         33.4910    9.1230  -10.0400 H     2041  TIP2030     0.2052
   6287 OH2        12.2420   23.7710    8.4740 O.3   2042  TIP2031    -0.4105
   6288 H1         12.4580   23.9990    9.3780 H     2042  TIP2031     0.2052
   6289 H2         12.8920   24.2360    7.9470 H     2042  TIP2031     0.2052
   6290 OH2       -26.9680   -0.8630    2.9730 O.3   2043  TIP2032    -0.4105
   6291 H1        -27.8070   -0.4220    3.1020 H     2043  TIP2032     0.2052
   6292 H2        -27.1840   -1.7960    2.9730 H     2043  TIP2032     0.2052
   6293 OH2         5.6620  -15.3940   14.1650 O.3   2044  TIP2033    -0.4105
   6294 H1          5.7920  -16.3340   14.2890 H     2044  TIP2033     0.2052
   6295 H2          4.8840  -15.3300   13.6100 H     2044  TIP2033     0.2052
   6296 OH2        -1.5850   -0.8370  -16.3540 O.3   2045  TIP2034    -0.4105
   6297 H1         -1.0120   -0.4240  -17.0000 H     2045  TIP2034     0.2052
   6298 H2         -1.7770   -0.1420  -15.7240 H     2045  TIP2034     0.2052
   6299 OH2       -16.4640   -8.3870   -9.4340 O.3   2046  TIP2035    -0.4105
   6300 H1        -16.0990   -9.2720   -9.4250 H     2046  TIP2035     0.2052
   6301 H2        -17.4080   -8.5150   -9.3440 H     2046  TIP2035     0.2052
   6302 OH2         4.3870   16.3280  -34.1640 O.3   2047  TIP2036    -0.4105
   6303 H1          4.1470   17.2540  -34.1710 H     2047  TIP2036     0.2052
   6304 H2          4.3730   16.0690  -35.0850 H     2047  TIP2036     0.2052
   6305 OH2         0.4830    0.1750   20.1160 O.3   2048  TIP2037    -0.4105
   6306 H1          0.6610    1.0910   19.9010 H     2048  TIP2037     0.2052
   6307 H2          1.3470   -0.2100   20.2630 H     2048  TIP2037     0.2052
   6308 OH2        -8.3880   -7.0880   -6.9970 O.3   2049  TIP2038    -0.4105
   6309 H1         -7.4390   -7.0820   -6.8710 H     2049  TIP2038     0.2052
   6310 H2         -8.7120   -6.3980   -6.4180 H     2049  TIP2038     0.2052
   6311 OH2        26.2630   13.6700    7.6420 O.3   2050  TIP2039    -0.4105
   6312 H1         27.1850   13.9200    7.5780 H     2050  TIP2039     0.2052
   6313 H2         26.0570   13.2940    6.7860 H     2050  TIP2039     0.2052
   6314 OH2        14.4190  -18.8980   17.6140 O.3   2051  TIP2040    -0.4105
   6315 H1         14.5890  -19.8390   17.6410 H     2051  TIP2040     0.2052
   6316 H2         14.3430  -18.6940   16.6820 H     2051  TIP2040     0.2052
   6317 OH2        37.0600    2.8110   -3.6530 O.3   2052  TIP2041    -0.4105
   6318 H1         37.5540    3.5970   -3.4210 H     2052  TIP2041     0.2052
   6319 H2         36.3280    2.7960   -3.0360 H     2052  TIP2041     0.2052
   6320 OH2        -6.8920    9.8600   11.2470 O.3   2053  TIP2042    -0.4105
   6321 H1         -6.9570   10.8040   11.3960 H     2053  TIP2042     0.2052
   6322 H2         -6.9930    9.7590   10.3000 H     2053  TIP2042     0.2052
   6323 OH2         8.9650   18.6840  -21.7920 O.3   2054  TIP2043    -0.4105
   6324 H1          8.1020   18.5780  -21.3920 H     2054  TIP2043     0.2052
   6325 H2          8.9390   18.1270  -22.5700 H     2054  TIP2043     0.2052
   6326 OH2        -9.7830   -6.4050   16.2820 O.3   2055  TIP2044    -0.4105
   6327 H1         -9.5770   -5.4950   16.4990 H     2055  TIP2044     0.2052
   6328 H2         -8.9790   -6.8860   16.4760 H     2055  TIP2044     0.2052
   6329 OH2       -14.4930    4.8810   -0.2960 O.3   2056  TIP2045    -0.4105
   6330 H1        -14.4590    3.9730   -0.5960 H     2056  TIP2045     0.2052
   6331 H2        -13.6080    5.2160   -0.4420 H     2056  TIP2045     0.2052
   6332 OH2        -1.7680    1.2410  -28.1680 O.3   2057  TIP2046    -0.4105
   6333 H1         -1.2700    1.5590  -27.4140 H     2057  TIP2046     0.2052
   6334 H2         -2.5000    0.7590  -27.7850 H     2057  TIP2046     0.2052
   6335 OH2       -20.1070  -13.5940    2.1440 O.3   2058  TIP2047    -0.4105
   6336 H1        -19.3640  -13.8850    1.6160 H     2058  TIP2047     0.2052
   6337 H2        -19.9000  -13.8860    3.0320 H     2058  TIP2047     0.2052
   6338 OH2       -12.0040   19.4310    4.9970 O.3   2059  TIP2048    -0.4105
   6339 H1        -11.7830   20.1600    5.5770 H     2059  TIP2048     0.2052
   6340 H2        -12.7980   19.0550    5.3760 H     2059  TIP2048     0.2052
   6341 OH2         0.9890    5.6170   21.0970 O.3   2060  TIP2049    -0.4105
   6342 H1          1.4660    4.7940   21.1990 H     2060  TIP2049     0.2052
   6343 H2          0.2850    5.4120   20.4810 H     2060  TIP2049     0.2052
   6344 OH2       -22.5040  -13.2750    6.5220 O.3   2061  TIP2050    -0.4105
   6345 H1        -22.8690  -14.1590    6.4870 H     2061  TIP2050     0.2052
   6346 H2        -22.8980  -12.8820    7.3010 H     2061  TIP2050     0.2052
   6347 OH2         6.2390  -13.5760    2.5690 O.3   2062  TIP2051    -0.4105
   6348 H1          7.1600  -13.8230    2.6570 H     2062  TIP2051     0.2052
   6349 H2          6.2400  -12.8710    1.9220 H     2062  TIP2051     0.2052
   6350 OH2        23.5210   20.1960   16.7670 O.3   2063  TIP2052    -0.4105
   6351 H1         24.3350   19.8190   16.4320 H     2063  TIP2052     0.2052
   6352 H2         23.7750   21.0560   17.1030 H     2063  TIP2052     0.2052
   6353 OH2         0.3290  -12.4950   10.5480 O.3   2064  TIP2053    -0.4105
   6354 H1         -0.2100  -11.8070   10.1590 H     2064  TIP2053     0.2052
   6355 H2         -0.2880  -13.0340   11.0420 H     2064  TIP2053     0.2052
   6356 OH2       -13.6470  -15.9580   -4.1960 O.3   2065  TIP2054    -0.4105
   6357 H1        -13.7890  -15.8820   -5.1400 H     2065  TIP2054     0.2052
   6358 H2        -14.3930  -15.5030   -3.8040 H     2065  TIP2054     0.2052
   6359 OH2        -3.0830   17.1170   20.8180 O.3   2066  TIP2055    -0.4105
   6360 H1         -3.9590   16.8530   20.5370 H     2066  TIP2055     0.2052
   6361 H2         -2.8480   17.8340   20.2280 H     2066  TIP2055     0.2052
   6362 OH2       -27.6910    5.1230   11.8860 O.3   2067  TIP2056    -0.4105
   6363 H1        -28.0880    4.3830   11.4260 H     2067  TIP2056     0.2052
   6364 H2        -27.0540    4.7240   12.4780 H     2067  TIP2056     0.2052
   6365 OH2       -12.2040   24.7130   -1.6410 O.3   2068  TIP2057    -0.4105
   6366 H1        -11.5110   24.2950   -2.1520 H     2068  TIP2057     0.2052
   6367 H2        -11.7610   25.0440   -0.8600 H     2068  TIP2057     0.2052
   6368 OH2        16.1100   10.4840  -19.4910 O.3   2069  TIP2058    -0.4105
   6369 H1         15.6220   11.2900  -19.3240 H     2069  TIP2058     0.2052
   6370 H2         16.9030   10.7730  -19.9420 H     2069  TIP2058     0.2052
   6371 OH2         2.8620    5.9130  -31.0490 O.3   2070  TIP2059    -0.4105
   6372 H1          3.1250    6.8090  -31.2600 H     2070  TIP2059     0.2052
   6373 H2          2.1550    6.0140  -30.4110 H     2070  TIP2059     0.2052
   6374 OH2        12.8700   -3.3390   -7.7290 O.3   2071  TIP2060    -0.4105
   6375 H1         12.1830   -3.9130   -8.0700 H     2071  TIP2060     0.2052
   6376 H2         13.4130   -3.1370   -8.4900 H     2071  TIP2060     0.2052
   6377 OH2        -7.7100   26.6480   -8.3400 O.3   2072  TIP2061    -0.4105
   6378 H1         -6.8180   26.9410   -8.5220 H     2072  TIP2061     0.2052
   6379 H2         -7.6160   26.0330   -7.6120 H     2072  TIP2061     0.2052
   6380 OH2        -2.1750  -20.2310   36.0300 O.3   2073  TIP2062    -0.4105
   6381 H1         -1.4180  -20.3070   36.6110 H     2073  TIP2062     0.2052
   6382 H2         -1.8770  -19.6610   35.3200 H     2073  TIP2062     0.2052
   6383 OH2         5.7570   19.8540    3.9520 O.3   2074  TIP2063    -0.4105
   6384 H1          5.4650   20.3330    4.7270 H     2074  TIP2063     0.2052
   6385 H2          6.2930   19.1410    4.2980 H     2074  TIP2063     0.2052
   6386 OH2        -2.2420   14.7750  -18.9360 O.3   2075  TIP2064    -0.4105
   6387 H1         -2.0780   15.6910  -18.7140 H     2075  TIP2064     0.2052
   6388 H2         -2.9650   14.5150  -18.3630 H     2075  TIP2064     0.2052
   6389 OH2         3.3090    5.3230    9.4100 O.3   2076  TIP2065    -0.4105
   6390 H1          4.0120    5.6230    8.8340 H     2076  TIP2065     0.2052
   6391 H2          3.1800    4.4040    9.1730 H     2076  TIP2065     0.2052
   6392 OH2         6.1880   13.1470    7.8250 O.3   2077  TIP2066    -0.4105
   6393 H1          6.3880   13.5530    8.6680 H     2077  TIP2066     0.2052
   6394 H2          6.8500   12.4630    7.7240 H     2077  TIP2066     0.2052
   6395 OH2         0.4150   -2.8600  -18.3650 O.3   2078  TIP2067    -0.4105
   6396 H1         -0.2100   -2.4830  -18.9840 H     2078  TIP2067     0.2052
   6397 H2          1.2520   -2.4570  -18.5930 H     2078  TIP2067     0.2052
   6398 OH2       -28.2140  -15.8950    1.7120 O.3   2079  TIP2068    -0.4105
   6399 H1        -27.7680  -16.4520    2.3510 H     2079  TIP2068     0.2052
   6400 H2        -28.1450  -15.0120    2.0740 H     2079  TIP2068     0.2052
   6401 OH2        -2.3540    0.1530  -24.7320 O.3   2080  TIP2069    -0.4105
   6402 H1         -2.1620    0.3710  -23.8200 H     2080  TIP2069     0.2052
   6403 H2         -2.3440    0.9950  -25.1860 H     2080  TIP2069     0.2052
   6404 OH2       -24.1890    5.0100   -9.7330 O.3   2081  TIP2070    -0.4105
   6405 H1        -24.7290    4.2440   -9.9270 H     2081  TIP2070     0.2052
   6406 H2        -24.6940    5.5020   -9.0860 H     2081  TIP2070     0.2052
   6407 OH2        14.1610    2.4370    0.3490 O.3   2082  TIP2071    -0.4105
   6408 H1         14.1200    2.1420   -0.5610 H     2082  TIP2071     0.2052
   6409 H2         14.0080    3.3800    0.3030 H     2082  TIP2071     0.2052
   6410 OH2         4.9880  -16.2460  -13.9590 O.3   2083  TIP2072    -0.4105
   6411 H1          4.5380  -16.9560  -13.5010 H     2083  TIP2072     0.2052
   6412 H2          5.6810  -15.9740  -13.3580 H     2083  TIP2072     0.2052
   6413 OH2        -2.7950    8.4310    2.8520 O.3   2084  TIP2073    -0.4105
   6414 H1         -3.2560    7.6310    3.1050 H     2084  TIP2073     0.2052
   6415 H2         -2.8790    8.4650    1.8990 H     2084  TIP2073     0.2052
   6416 OH2        -5.4450    1.3730   -5.1080 O.3   2085  TIP2074    -0.4105
   6417 H1         -4.9940    0.5780   -5.3910 H     2085  TIP2074     0.2052
   6418 H2         -4.8200    1.8120   -4.5320 H     2085  TIP2074     0.2052
   6419 OH2         2.2990  -16.6230  -18.6760 O.3   2086  TIP2075    -0.4105
   6420 H1          1.8210  -15.8330  -18.9270 H     2086  TIP2075     0.2052
   6421 H2          2.8500  -16.3480  -17.9430 H     2086  TIP2075     0.2052
   6422 OH2        -3.4780    3.8260  -21.1050 O.3   2087  TIP2076    -0.4105
   6423 H1         -3.7620    3.6600  -20.2060 H     2087  TIP2076     0.2052
   6424 H2         -2.9260    4.6050  -21.0420 H     2087  TIP2076     0.2052
   6425 OH2        -8.4580   10.9380   18.8230 O.3   2088  TIP2077    -0.4105
   6426 H1         -7.7340   10.3130   18.8380 H     2088  TIP2077     0.2052
   6427 H2         -8.1050   11.7240   19.2400 H     2088  TIP2077     0.2052
   6428 OH2        11.0890   -7.7490   13.8220 O.3   2089  TIP2078    -0.4105
   6429 H1         11.2280   -6.8780   13.4500 H     2089  TIP2078     0.2052
   6430 H2         10.4390   -7.6140   14.5120 H     2089  TIP2078     0.2052
   6431 OH2       -16.1580    2.8820    3.6630 O.3   2090  TIP2079    -0.4105
   6432 H1        -16.8760    3.5090    3.7550 H     2090  TIP2079     0.2052
   6433 H2        -15.4040    3.3220    4.0550 H     2090  TIP2079     0.2052
   6434 OH2       -21.8680  -13.9080   18.9120 O.3   2091  TIP2080    -0.4105
   6435 H1        -20.9920  -13.5370   18.8030 H     2091  TIP2080     0.2052
   6436 H2        -22.4410  -13.1470   19.0010 H     2091  TIP2080     0.2052
   6437 OH2        27.9830    4.9780   -7.5560 O.3   2092  TIP2081    -0.4105
   6438 H1         27.3600    4.8250   -8.2670 H     2092  TIP2081     0.2052
   6439 H2         27.9660    4.1710   -7.0430 H     2092  TIP2081     0.2052
   6440 OH2       -11.2580  -14.3990   30.1980 O.3   2093  TIP2082    -0.4105
   6441 H1        -11.5810  -14.0180   29.3810 H     2093  TIP2082     0.2052
   6442 H2        -10.9670  -15.2770   29.9530 H     2093  TIP2082     0.2052
   6443 OH2        16.4890   24.6260   29.9320 O.3   2094  TIP2083    -0.4105
   6444 H1         17.3760   24.9230   29.7300 H     2094  TIP2083     0.2052
   6445 H2         16.0850   24.4780   29.0770 H     2094  TIP2083     0.2052
   6446 OH2       -18.7010   17.4960    5.2470 O.3   2095  TIP2084    -0.4105
   6447 H1        -19.2790   17.5030    6.0100 H     2095  TIP2084     0.2052
   6448 H2        -18.1950   16.6880    5.3380 H     2095  TIP2084     0.2052
   6449 OH2       -18.4920    1.2480  -10.1340 O.3   2096  TIP2085    -0.4105
   6450 H1        -18.0130    0.4740  -10.4300 H     2096  TIP2085     0.2052
   6451 H2        -17.8780    1.9720  -10.2560 H     2096  TIP2085     0.2052
   6452 OH2       -12.2800   -5.0430  -25.5470 O.3   2097  TIP2086    -0.4105
   6453 H1        -11.7660   -5.4660  -24.8590 H     2097  TIP2086     0.2052
   6454 H2        -12.9140   -5.7070  -25.8160 H     2097  TIP2086     0.2052
   6455 OH2         2.5310  -10.4190   33.7530 O.3   2098  TIP2087    -0.4105
   6456 H1          2.9270   -9.5480   33.7280 H     2098  TIP2087     0.2052
   6457 H2          2.4360  -10.6670   32.8340 H     2098  TIP2087     0.2052
   6458 OH2       -33.0610   -8.1550    2.5450 O.3   2099  TIP2088    -0.4105
   6459 H1        -32.2030   -8.5730    2.4780 H     2099  TIP2088     0.2052
   6460 H2        -33.6600   -8.7650    2.1140 H     2099  TIP2088     0.2052
   6461 OH2       -17.0150   18.7940   -8.5090 O.3   2100  TIP2089    -0.4105
   6462 H1        -17.7430   18.3280   -8.9210 H     2100  TIP2089     0.2052
   6463 H2        -16.8870   19.5700   -9.0550 H     2100  TIP2089     0.2052
   6464 OH2       -10.8230   -5.7420    0.4630 O.3   2101  TIP2090    -0.4105
   6465 H1        -10.4100   -6.3450   -0.1540 H     2101  TIP2090     0.2052
   6466 H2        -10.4450   -5.9720    1.3120 H     2101  TIP2090     0.2052
   6467 OH2       -22.5600   -5.3440   -1.9440 O.3   2102  TIP2091    -0.4105
   6468 H1        -23.5050   -5.4460   -1.8290 H     2102  TIP2091     0.2052
   6469 H2        -22.1750   -5.9370   -1.2990 H     2102  TIP2091     0.2052
   6470 OH2         0.1520  -23.9010   -4.6050 O.3   2103  TIP2092    -0.4105
   6471 H1          0.7860  -23.8720   -5.3220 H     2103  TIP2092     0.2052
   6472 H2          0.3150  -23.1000   -4.1080 H     2103  TIP2092     0.2052
   6473 OH2       -17.3390   -4.2820    8.6690 O.3   2104  TIP2093    -0.4105
   6474 H1        -16.7460   -5.0340    8.6610 H     2104  TIP2093     0.2052
   6475 H2        -17.5750   -4.1530    7.7500 H     2104  TIP2093     0.2052
   6476 OH2        28.6050   -5.8610   -3.4040 O.3   2105  TIP2094    -0.4105
   6477 H1         28.7370   -6.0620   -2.4780 H     2105  TIP2094     0.2052
   6478 H2         27.6900   -5.5850   -3.4620 H     2105  TIP2094     0.2052
   6479 OH2        -2.5430  -13.7560  -17.5080 O.3   2106  TIP2095    -0.4105
   6480 H1         -2.0790  -13.4480  -18.2870 H     2106  TIP2095     0.2052
   6481 H2         -3.4110  -14.0030  -17.8270 H     2106  TIP2095     0.2052
   6482 OH2       -24.7420  -13.1320   24.4550 O.3   2107  TIP2096    -0.4105
   6483 H1        -24.1670  -13.8830   24.5990 H     2107  TIP2096     0.2052
   6484 H2        -24.1910  -12.3700   24.6380 H     2107  TIP2096     0.2052
   6485 OH2       -13.6580   12.1000   -0.6050 O.3   2108  TIP2097    -0.4105
   6486 H1        -13.3080   11.7470    0.2130 H     2108  TIP2097     0.2052
   6487 H2        -13.1360   12.8850   -0.7700 H     2108  TIP2097     0.2052
   6488 OH2        -4.4870   14.5390   22.7470 O.3   2109  TIP2098    -0.4105
   6489 H1         -4.6850   15.4750   22.7130 H     2109  TIP2098     0.2052
   6490 H2         -4.4340   14.2710   21.8290 H     2109  TIP2098     0.2052
   6491 OH2       -26.4640    0.0960    8.2910 O.3   2110  TIP2099    -0.4105
   6492 H1        -26.8680   -0.6800    8.6790 H     2110  TIP2099     0.2052
   6493 H2        -26.5570   -0.0310    7.3460 H     2110  TIP2099     0.2052
   6494 OH2        -0.4230   21.0680    8.4990 O.3   2111  TIP2100    -0.4105
   6495 H1         -0.3820   21.5570    9.3210 H     2111  TIP2100     0.2052
   6496 H2         -0.6440   20.1750    8.7620 H     2111  TIP2100     0.2052
   6497 OH2       -20.7500   20.4800    6.8190 O.3   2112  TIP2101    -0.4105
   6498 H1        -21.1760   20.0450    6.0810 H     2112  TIP2101     0.2052
   6499 H2        -21.1860   20.1240    7.5930 H     2112  TIP2101     0.2052
   6500 OH2        -2.1180  -23.5560    3.0670 O.3   2113  TIP2102    -0.4105
   6501 H1         -2.6940  -23.4080    2.3160 H     2113  TIP2102     0.2052
   6502 H2         -1.2670  -23.7580    2.6790 H     2113  TIP2102     0.2052
   6503 OH2        -7.6390    8.5580  -29.6800 O.3   2114  TIP2103    -0.4105
   6504 H1         -7.7450    8.4610  -28.7330 H     2114  TIP2103     0.2052
   6505 H2         -6.7000    8.6950  -29.8040 H     2114  TIP2103     0.2052
   6506 OH2       -29.5310   -3.3940   -1.4780 O.3   2115  TIP2104    -0.4105
   6507 H1        -28.5760   -3.4220   -1.5400 H     2115  TIP2104     0.2052
   6508 H2        -29.8170   -3.0530   -2.3250 H     2115  TIP2104     0.2052
   6509 OH2        -7.1270    0.7870    6.6980 O.3   2116  TIP2105    -0.4105
   6510 H1         -6.6880    1.3520    6.0620 H     2116  TIP2105     0.2052
   6511 H2         -7.7800    1.3520    7.1110 H     2116  TIP2105     0.2052
   6512 OH2        17.7270  -20.6030   -7.3790 O.3   2117  TIP2106    -0.4105
   6513 H1         18.6110  -20.8880   -7.6110 H     2117  TIP2106     0.2052
   6514 H2         17.6680  -20.7500   -6.4350 H     2117  TIP2106     0.2052
   6515 OH2        -4.8760  -27.8670  -10.8970 O.3   2118  TIP2107    -0.4105
   6516 H1         -4.4700  -27.1860  -11.4340 H     2118  TIP2107     0.2052
   6517 H2         -4.6530  -28.6860  -11.3390 H     2118  TIP2107     0.2052
   6518 OH2         6.5650   14.5400   10.5840 O.3   2119  TIP2108    -0.4105
   6519 H1          5.6330   14.6400   10.7780 H     2119  TIP2108     0.2052
   6520 H2          6.8000   15.3400   10.1150 H     2119  TIP2108     0.2052
   6521 OH2       -14.7160    5.9420   -8.8150 O.3   2120  TIP2109    -0.4105
   6522 H1        -14.9280    5.4560   -8.0180 H     2120  TIP2109     0.2052
   6523 H2        -13.9620    5.4830   -9.1830 H     2120  TIP2109     0.2052
   6524 OH2        25.2520   -1.9460   -6.9640 O.3   2121  TIP2110    -0.4105
   6525 H1         24.6350   -1.3170   -7.3370 H     2121  TIP2110     0.2052
   6526 H2         25.0460   -2.7720   -7.4010 H     2121  TIP2110     0.2052
   6527 OH2        16.0710    5.2660   -4.0520 O.3   2122  TIP2111    -0.4105
   6528 H1         16.4200    5.9720   -4.5970 H     2122  TIP2111     0.2052
   6529 H2         15.1270    5.4220   -4.0330 H     2122  TIP2111     0.2052
   6530 OH2         0.8750   22.9390   -9.2440 O.3   2123  TIP2112    -0.4105
   6531 H1          0.4500   23.6190   -8.7220 H     2123  TIP2112     0.2052
   6532 H2          1.1460   22.2800   -8.6050 H     2123  TIP2112     0.2052
   6533 OH2         1.1080  -17.1230   33.8690 O.3   2124  TIP2113    -0.4105
   6534 H1          1.3970  -16.7550   33.0340 H     2124  TIP2113     0.2052
   6535 H2          1.8980  -17.5110   34.2460 H     2124  TIP2113     0.2052
   6536 OH2         4.8000    5.4250   28.2130 O.3   2125  TIP2114    -0.4105
   6537 H1          4.3460    4.5970   28.0540 H     2125  TIP2114     0.2052
   6538 H2          4.7870    5.5260   29.1650 H     2125  TIP2114     0.2052
   6539 OH2       -10.8390    3.7850  -21.2800 O.3   2126  TIP2115    -0.4105
   6540 H1        -10.1300    4.3450  -21.5940 H     2126  TIP2115     0.2052
   6541 H2        -10.4720    3.3390  -20.5160 H     2126  TIP2115     0.2052
   6542 OH2        22.5800   12.3980   -8.9610 O.3   2127  TIP2116    -0.4105
   6543 H1         23.2890   12.7560   -8.4260 H     2127  TIP2116     0.2052
   6544 H2         22.9050   11.5450   -9.2490 H     2127  TIP2116     0.2052
   6545 OH2         2.3640   -3.5570    9.8300 O.3   2128  TIP2117    -0.4105
   6546 H1          2.8420   -3.3990   10.6450 H     2128  TIP2117     0.2052
   6547 H2          2.0530   -2.6920    9.5630 H     2128  TIP2117     0.2052
   6548 OH2        11.8820  -22.2930   19.4980 O.3   2129  TIP2118    -0.4105
   6549 H1         11.1090  -22.2650   18.9340 H     2129  TIP2118     0.2052
   6550 H2         12.6080  -22.0510   18.9230 H     2129  TIP2118     0.2052
   6551 OH2       -14.0460   10.6940   12.5760 O.3   2130  TIP2119    -0.4105
   6552 H1        -13.5130   11.3600   13.0110 H     2130  TIP2119     0.2052
   6553 H2        -14.8530   10.6600   13.0890 H     2130  TIP2119     0.2052
   6554 OH2        -3.9550   -9.0740   32.9300 O.3   2131  TIP2120    -0.4105
   6555 H1         -3.3790   -8.8770   33.6690 H     2131  TIP2120     0.2052
   6556 H2         -3.3910   -9.0000   32.1600 H     2131  TIP2120     0.2052
   6557 OH2       -11.2200   17.8140  -10.4520 O.3   2132  TIP2121    -0.4105
   6558 H1        -12.1710   17.8060  -10.5550 H     2132  TIP2121     0.2052
   6559 H2        -10.9590   18.7010  -10.7010 H     2132  TIP2121     0.2052
   6560 OH2         2.2390  -23.5230    5.1470 O.3   2133  TIP2122    -0.4105
   6561 H1          1.6690  -23.4380    4.3830 H     2133  TIP2122     0.2052
   6562 H2          1.6590  -23.3880    5.8960 H     2133  TIP2122     0.2052
   6563 OH2         7.1160    4.4540  -21.3300 O.3   2134  TIP2123    -0.4105
   6564 H1          7.3820    3.9540  -22.1020 H     2134  TIP2123     0.2052
   6565 H2          6.4450    3.9140  -20.9130 H     2134  TIP2123     0.2052
   6566 OH2        -9.3730    7.2240   16.8680 O.3   2135  TIP2124    -0.4105
   6567 H1         -9.2630    6.3140   16.5960 H     2135  TIP2124     0.2052
   6568 H2         -9.5050    7.1770   17.8150 H     2135  TIP2124     0.2052
   6569 OH2       -13.8560  -22.6620  -16.0160 O.3   2136  TIP2125    -0.4105
   6570 H1        -13.1360  -22.7240  -16.6430 H     2136  TIP2125     0.2052
   6571 H2        -14.3270  -23.4900  -16.1080 H     2136  TIP2125     0.2052
   6572 OH2        -8.7880   28.0390   14.5560 O.3   2137  TIP2126    -0.4105
   6573 H1         -8.9590   28.2800   15.4670 H     2137  TIP2126     0.2052
   6574 H2         -9.5810   27.5820   14.2760 H     2137  TIP2126     0.2052
   6575 OH2        26.9900   15.2940   -1.7970 O.3   2138  TIP2127    -0.4105
   6576 H1         26.4100   15.0990   -2.5340 H     2138  TIP2127     0.2052
   6577 H2         26.4210   15.7060   -1.1470 H     2138  TIP2127     0.2052
   6578 OH2        -2.8840  -13.1020   18.8300 O.3   2139  TIP2128    -0.4105
   6579 H1         -2.2100  -12.6720   19.3560 H     2139  TIP2128     0.2052
   6580 H2         -2.4010  -13.7140   18.2750 H     2139  TIP2128     0.2052
   6581 OH2        11.0480   11.8810    0.4680 O.3   2140  TIP2129    -0.4105
   6582 H1         10.1940   12.3080    0.5330 H     2140  TIP2129     0.2052
   6583 H2         11.3200   11.7510    1.3770 H     2140  TIP2129     0.2052
   6584 OH2        10.8000   11.1030   32.2690 O.3   2141  TIP2130    -0.4105
   6585 H1         11.3210   11.1310   33.0710 H     2141  TIP2130     0.2052
   6586 H2         10.6720   12.0230   32.0330 H     2141  TIP2130     0.2052
   6587 OH2        27.7740    1.2420    3.8250 O.3   2142  TIP2131    -0.4105
   6588 H1         28.4860    1.8340    4.0660 H     2142  TIP2131     0.2052
   6589 H2         27.9900    0.9540    2.9380 H     2142  TIP2131     0.2052
   6590 OH2         4.6140    0.7810    3.3040 O.3   2143  TIP2132    -0.4105
   6591 H1          4.6370    0.5850    2.3670 H     2143  TIP2132     0.2052
   6592 H2          3.7870    1.2460    3.4320 H     2143  TIP2132     0.2052
   6593 OH2        -6.1310   27.1030   14.7350 O.3   2144  TIP2133    -0.4105
   6594 H1         -7.0410   27.3990   14.7470 H     2144  TIP2133     0.2052
   6595 H2         -5.6180   27.9070   14.6560 H     2144  TIP2133     0.2052
   6596 OH2         0.6590   -3.8660   14.6620 O.3   2145  TIP2134    -0.4105
   6597 H1          1.0690   -3.0330   14.4290 H     2145  TIP2134     0.2052
   6598 H2          1.3900   -4.4780   14.7450 H     2145  TIP2134     0.2052
   6599 OH2         2.7800  -17.6610  -10.0480 O.3   2146  TIP2135    -0.4105
   6600 H1          3.4590  -17.2670   -9.5000 H     2146  TIP2135     0.2052
   6601 H2          2.2030  -16.9330  -10.2770 H     2146  TIP2135     0.2052
   6602 OH2         7.6020   15.2760   -3.4400 O.3   2147  TIP2136    -0.4105
   6603 H1          8.1760   14.6010   -3.0760 H     2147  TIP2136     0.2052
   6604 H2          8.0020   15.5060   -4.2780 H     2147  TIP2136     0.2052
   6605 OH2        -1.4250  -13.4290   26.8810 O.3   2148  TIP2137    -0.4105
   6606 H1         -1.8660  -12.5820   26.9520 H     2148  TIP2137     0.2052
   6607 H2         -2.1350  -14.0590   26.7560 H     2148  TIP2137     0.2052
   6608 OH2        22.5810   -0.0890   -1.0230 O.3   2149  TIP2138    -0.4105
   6609 H1         22.1990   -0.6310   -0.3330 H     2149  TIP2138     0.2052
   6610 H2         22.2330   -0.4550   -1.8360 H     2149  TIP2138     0.2052
   6611 OH2        22.8070   12.4700   -3.8820 O.3   2150  TIP2139    -0.4105
   6612 H1         22.6510   12.1670   -4.7760 H     2150  TIP2139     0.2052
   6613 H2         22.0240   12.2060   -3.3990 H     2150  TIP2139     0.2052
   6614 OH2        31.5040    7.5820  -12.3100 O.3   2151  TIP2140    -0.4105
   6615 H1         32.1020    7.9700  -12.9490 H     2151  TIP2140     0.2052
   6616 H2         31.6920    8.0460  -11.4940 H     2151  TIP2140     0.2052
   6617 OH2        16.7600   -6.1490   14.4390 O.3   2152  TIP2141    -0.4105
   6618 H1         16.1620   -5.4710   14.1260 H     2152  TIP2141     0.2052
   6619 H2         16.9120   -6.7070   13.6760 H     2152  TIP2141     0.2052
   6620 OH2        -7.5020   30.0180    0.0000 O.3   2153  TIP2142    -0.4105
   6621 H1         -6.7820   29.3970   -0.1170 H     2153  TIP2142     0.2052
   6622 H2         -7.1730   30.6480    0.6410 H     2153  TIP2142     0.2052
   6623 OH2       -17.6550   18.8380  -11.8520 O.3   2154  TIP2143    -0.4105
   6624 H1        -18.1930   18.9770  -12.6310 H     2154  TIP2143     0.2052
   6625 H2        -16.9730   18.2300  -12.1370 H     2154  TIP2143     0.2052
   6626 OH2       -13.1170   18.0900   11.3220 O.3   2155  TIP2144    -0.4105
   6627 H1        -12.7100   18.8850   11.6650 H     2155  TIP2144     0.2052
   6628 H2        -12.9020   17.4140   11.9650 H     2155  TIP2144     0.2052
   6629 OH2       -16.7170   20.8350  -10.5000 O.3   2156  TIP2145    -0.4105
   6630 H1        -16.8870   20.0340  -10.9960 H     2156  TIP2145     0.2052
   6631 H2        -16.2940   21.4210  -11.1270 H     2156  TIP2145     0.2052
   6632 OH2       -32.4690   -2.9450    4.5990 O.3   2157  TIP2146    -0.4105
   6633 H1        -33.1980   -3.5300    4.3940 H     2157  TIP2146     0.2052
   6634 H2        -31.8650   -3.0470    3.8640 H     2157  TIP2146     0.2052
   6635 OH2       -10.1150  -16.5260   -3.6800 O.3   2158  TIP2147    -0.4105
   6636 H1        -10.8960  -16.7280   -3.1630 H     2158  TIP2147     0.2052
   6637 H2         -9.6800  -15.8260   -3.1930 H     2158  TIP2147     0.2052
   6638 OH2        19.1590    9.0710    1.8890 O.3   2159  TIP2148    -0.4105
   6639 H1         19.8450    8.7110    2.4510 H     2159  TIP2148     0.2052
   6640 H2         18.5970    9.5670    2.4840 H     2159  TIP2148     0.2052
   6641 OH2        -1.2170  -14.7290   -7.2400 O.3   2160  TIP2149    -0.4105
   6642 H1         -0.7980  -15.5690   -7.0560 H     2160  TIP2149     0.2052
   6643 H2         -1.8280  -14.9170   -7.9540 H     2160  TIP2149     0.2052
   6644 OH2         5.7280   -8.0470   -6.1160 O.3   2161  TIP2150    -0.4105
   6645 H1          5.6650   -7.0970   -6.2170 H     2161  TIP2150     0.2052
   6646 H2          6.0390   -8.3590   -6.9660 H     2161  TIP2150     0.2052
   6647 OH2       -11.5290   21.7860    2.1210 O.3   2162  TIP2151    -0.4105
   6648 H1        -11.1170   21.6560    2.9750 H     2162  TIP2151     0.2052
   6649 H2        -11.3660   22.7070    1.9140 H     2162  TIP2151     0.2052
   6650 OH2        -8.3720  -17.1210   19.3770 O.3   2163  TIP2152    -0.4105
   6651 H1         -9.2810  -17.3950   19.5020 H     2163  TIP2152     0.2052
   6652 H2         -7.8710  -17.9360   19.3960 H     2163  TIP2152     0.2052
   6653 OH2       -14.7590  -21.9800    0.8920 O.3   2164  TIP2153    -0.4105
   6654 H1        -13.8310  -22.1370    0.7190 H     2164  TIP2153     0.2052
   6655 H2        -14.7980  -21.0700    1.1860 H     2164  TIP2153     0.2052
   6656 OH2        22.9500  -14.0990    1.1440 O.3   2165  TIP2154    -0.4105
   6657 H1         23.0460  -15.0180    1.3910 H     2165  TIP2154     0.2052
   6658 H2         22.0580  -13.8720    1.4040 H     2165  TIP2154     0.2052
   6659 OH2       -16.9130  -19.3380    8.5180 O.3   2166  TIP2155    -0.4105
   6660 H1        -17.1910  -18.4270    8.4260 H     2166  TIP2155     0.2052
   6661 H2        -17.6890  -19.8500    8.2930 H     2166  TIP2155     0.2052
   6662 OH2        32.4690   -0.4340   -8.5740 O.3   2167  TIP2156    -0.4105
   6663 H1         32.0220   -1.1250   -8.0850 H     2167  TIP2156     0.2052
   6664 H2         32.5570   -0.7850   -9.4600 H     2167  TIP2156     0.2052
   6665 OH2       -11.6310   -9.4240   -9.0460 O.3   2168  TIP2157    -0.4105
   6666 H1        -12.2210   -9.5860   -8.3100 H     2168  TIP2157     0.2052
   6667 H2        -10.9550  -10.0970   -8.9640 H     2168  TIP2157     0.2052
   6668 OH2       -18.4030   -7.0710   20.4560 O.3   2169  TIP2158    -0.4105
   6669 H1        -17.5200   -6.9580   20.8080 H     2169  TIP2158     0.2052
   6670 H2        -18.4210   -7.9750   20.1410 H     2169  TIP2158     0.2052
   6671 OH2        -9.1340  -16.3210  -15.6530 O.3   2170  TIP2159    -0.4105
   6672 H1         -9.9280  -16.7840  -15.3850 H     2170  TIP2159     0.2052
   6673 H2         -9.3060  -15.4050  -15.4350 H     2170  TIP2159     0.2052
   6674 OH2         2.0770   17.9010  -22.0950 O.3   2171  TIP2160    -0.4105
   6675 H1          1.5370   18.5420  -22.5570 H     2171  TIP2160     0.2052
   6676 H2          2.6330   18.4270  -21.5190 H     2171  TIP2160     0.2052
   6677 OH2         6.6220   19.7650   -3.2670 O.3   2172  TIP2161    -0.4105
   6678 H1          6.6310   20.6450   -3.6420 H     2172  TIP2161     0.2052
   6679 H2          7.5210   19.6190   -2.9720 H     2172  TIP2161     0.2052
   6680 OH2        14.2280   -6.8200   -4.5960 O.3   2173  TIP2162    -0.4105
   6681 H1         14.9640   -6.6720   -5.1900 H     2173  TIP2162     0.2052
   6682 H2         14.1390   -5.9980   -4.1140 H     2173  TIP2162     0.2052
   6683 OH2         0.7230  -27.4390   -8.8640 O.3   2174  TIP2163    -0.4105
   6684 H1          1.5090  -26.9460   -9.0990 H     2174  TIP2163     0.2052
   6685 H2          0.2980  -27.6270   -9.7010 H     2174  TIP2163     0.2052
   6686 OH2        19.1610   -0.6860   12.9130 O.3   2175  TIP2164    -0.4105
   6687 H1         19.6080   -0.3890   12.1200 H     2175  TIP2164     0.2052
   6688 H2         18.9190    0.1210   13.3680 H     2175  TIP2164     0.2052
   6689 OH2        -3.9970   -2.3900    3.1200 O.3   2176  TIP2165    -0.4105
   6690 H1         -3.6480   -3.1450    2.6460 H     2176  TIP2165     0.2052
   6691 H2         -4.1640   -1.7370    2.4410 H     2176  TIP2165     0.2052
   6692 OH2        -0.5220   -8.6260   31.7740 O.3   2177  TIP2166    -0.4105
   6693 H1         -0.4100   -9.3900   32.3400 H     2177  TIP2166     0.2052
   6694 H2         -0.4950   -8.9790   30.8850 H     2177  TIP2166     0.2052
   6695 OH2       -10.3400  -15.6820  -30.0390 O.3   2178  TIP2167    -0.4105
   6696 H1        -10.7740  -16.1840  -30.7280 H     2178  TIP2167     0.2052
   6697 H2        -10.1020  -16.3340  -29.3800 H     2178  TIP2167     0.2052
   6698 OH2         7.7220   19.7440   -0.0270 O.3   2179  TIP2168    -0.4105
   6699 H1          8.3000   20.4580   -0.2940 H     2179  TIP2168     0.2052
   6700 H2          6.8430   20.0500   -0.2510 H     2179  TIP2168     0.2052
   6701 OH2       -26.1370  -15.1870    5.6000 O.3   2180  TIP2169    -0.4105
   6702 H1        -25.4010  -15.3930    6.1770 H     2180  TIP2169     0.2052
   6703 H2        -26.1970  -15.9380    5.0100 H     2180  TIP2169     0.2052
   6704 OH2         9.3110  -19.6050    3.6770 O.3   2181  TIP2170    -0.4105
   6705 H1          8.8830  -19.5200    4.5280 H     2181  TIP2170     0.2052
   6706 H2         10.2180  -19.8310    3.8850 H     2181  TIP2170     0.2052
   6707 OH2       -30.6050    5.7150   10.4600 O.3   2182  TIP2171    -0.4105
   6708 H1        -30.2590    6.5510   10.7740 H     2182  TIP2171     0.2052
   6709 H2        -29.9160    5.3680    9.8940 H     2182  TIP2171     0.2052
   6710 OH2        19.6360  -22.0990    2.3220 O.3   2183  TIP2172    -0.4105
   6711 H1         19.5490  -21.1560    2.1840 H     2183  TIP2172     0.2052
   6712 H2         18.9000  -22.4810    1.8440 H     2183  TIP2172     0.2052
   6713 OH2         1.3950   11.9780  -11.4440 O.3   2184  TIP2173    -0.4105
   6714 H1          1.5610   11.0690  -11.6940 H     2184  TIP2173     0.2052
   6715 H2          2.2650   12.3470  -11.2900 H     2184  TIP2173     0.2052
   6716 OH2         0.5220   18.8500   -3.0650 O.3   2185  TIP2174    -0.4105
   6717 H1          0.1160   17.9920   -3.1900 H     2185  TIP2174     0.2052
   6718 H2         -0.1970   19.4170   -2.7860 H     2185  TIP2174     0.2052
   6719 OH2       -12.4900  -18.5120   -4.7070 O.3   2186  TIP2175    -0.4105
   6720 H1        -12.7830  -17.6050   -4.6190 H     2186  TIP2175     0.2052
   6721 H2        -12.1210  -18.5600   -5.5890 H     2186  TIP2175     0.2052
   6722 OH2        10.0350  -12.1060   -2.7030 O.3   2187  TIP2176    -0.4105
   6723 H1          9.7760  -12.2430   -3.6140 H     2187  TIP2176     0.2052
   6724 H2          9.6620  -11.2550   -2.4730 H     2187  TIP2176     0.2052
   6725 OH2       -21.2640   -1.8130    7.9040 O.3   2188  TIP2177    -0.4105
   6726 H1        -21.4410   -2.2140    8.7540 H     2188  TIP2177     0.2052
   6727 H2        -22.1240   -1.5330    7.5870 H     2188  TIP2177     0.2052
   6728 OH2        -3.6740  -11.0590   17.0340 O.3   2189  TIP2178    -0.4105
   6729 H1         -3.4790  -11.7860   17.6260 H     2189  TIP2178     0.2052
   6730 H2         -3.0770  -11.1840   16.2960 H     2189  TIP2178     0.2052
   6731 OH2         4.1040  -16.7760   -2.3700 O.3   2190  TIP2179    -0.4105
   6732 H1          4.7570  -16.3870   -2.9510 H     2190  TIP2179     0.2052
   6733 H2          3.9600  -17.6540   -2.7240 H     2190  TIP2179     0.2052
   6734 OH2       -10.0700   13.4580   11.8110 O.3   2191  TIP2180    -0.4105
   6735 H1        -10.8220   13.5960   11.2350 H     2191  TIP2180     0.2052
   6736 H2        -10.1500   12.5480   12.0970 H     2191  TIP2180     0.2052
   6737 OH2       -17.1780   13.7440  -11.4670 O.3   2192  TIP2181    -0.4105
   6738 H1        -17.0970   14.6970  -11.4720 H     2192  TIP2181     0.2052
   6739 H2        -16.2780   13.4260  -11.5460 H     2192  TIP2181     0.2052
   6740 OH2       -15.6650  -24.2200  -10.6940 O.3   2193  TIP2182    -0.4105
   6741 H1        -14.8130  -24.0840  -11.1100 H     2193  TIP2182     0.2052
   6742 H2        -16.0050  -23.3380  -10.5510 H     2193  TIP2182     0.2052
   6743 OH2       -11.3390  -14.5190  -10.5480 O.3   2194  TIP2183    -0.4105
   6744 H1        -11.5730  -15.4050  -10.8210 H     2194  TIP2183     0.2052
   6745 H2        -10.7770  -14.1910  -11.2500 H     2194  TIP2183     0.2052
   6746 OH2       -13.5720  -14.4000  -26.1870 O.3   2195  TIP2184    -0.4105
   6747 H1        -13.4780  -14.7580  -25.3040 H     2195  TIP2184     0.2052
   6748 H2        -13.1270  -13.5540  -26.1520 H     2195  TIP2184     0.2052
   6749 OH2       -24.1230  -14.8320    3.5800 O.3   2196  TIP2185    -0.4105
   6750 H1        -24.5260  -14.2770    4.2480 H     2196  TIP2185     0.2052
   6751 H2        -24.8580  -15.2900    3.1720 H     2196  TIP2185     0.2052
   6752 OH2       -12.6500    9.3950  -11.8730 O.3   2197  TIP2186    -0.4105
   6753 H1        -13.2720    8.9290  -11.3140 H     2197  TIP2186     0.2052
   6754 H2        -11.7910    9.0770  -11.5930 H     2197  TIP2186     0.2052
   6755 OH2       -23.9640   -1.2440    6.9060 O.3   2198  TIP2187    -0.4105
   6756 H1        -23.5720   -1.4590    6.0590 H     2198  TIP2187     0.2052
   6757 H2        -24.0610   -0.2920    6.8910 H     2198  TIP2187     0.2052
   6758 OH2       -14.0770    0.4950   18.1700 O.3   2199  TIP2188    -0.4105
   6759 H1        -14.7770    1.1470   18.1880 H     2199  TIP2188     0.2052
   6760 H2        -13.3540    0.9320   17.7200 H     2199  TIP2188     0.2052
   6761 OH2         4.6630   -1.0120  -27.1170 O.3   2200  TIP2189    -0.4105
   6762 H1          5.4340   -1.0700  -26.5540 H     2200  TIP2189     0.2052
   6763 H2          4.8630   -0.3010  -27.7260 H     2200  TIP2189     0.2052
   6764 OH2         4.2670   14.1990   30.6990 O.3   2201  TIP2190    -0.4105
   6765 H1          4.3680   13.3770   31.1790 H     2201  TIP2190     0.2052
   6766 H2          3.3590   14.4570   30.8540 H     2201  TIP2190     0.2052
   6767 OH2        -2.3130  -26.0730   -1.4480 O.3   2202  TIP2191    -0.4105
   6768 H1         -1.9290  -26.8390   -1.8750 H     2202  TIP2191     0.2052
   6769 H2         -2.1560  -26.2160   -0.5140 H     2202  TIP2191     0.2052
   6770 OH2        24.2610    9.1700    2.4430 O.3   2203  TIP2192    -0.4105
   6771 H1         24.2420    9.8220    3.1440 H     2203  TIP2192     0.2052
   6772 H2         24.7310    9.5990    1.7280 H     2203  TIP2192     0.2052
   6773 OH2        29.3930  -11.9910   -4.3270 O.3   2204  TIP2193    -0.4105
   6774 H1         30.1090  -11.3870   -4.1330 H     2204  TIP2193     0.2052
   6775 H2         29.4560  -12.6640   -3.6500 H     2204  TIP2193     0.2052
   6776 OH2         5.9160  -26.6880   16.1610 O.3   2205  TIP2194    -0.4105
   6777 H1          5.9370  -27.1540   16.9970 H     2205  TIP2194     0.2052
   6778 H2          5.7010  -27.3610   15.5160 H     2205  TIP2194     0.2052
   6779 OH2        -6.8090  -11.7880   25.1740 O.3   2206  TIP2195    -0.4105
   6780 H1         -7.0610  -11.7270   26.0950 H     2206  TIP2195     0.2052
   6781 H2         -7.1430  -12.6380   24.8890 H     2206  TIP2195     0.2052
   6782 OH2        -3.9820  -13.1810  -10.3800 O.3   2207  TIP2196    -0.4105
   6783 H1         -3.2850  -13.8120  -10.1990 H     2207  TIP2196     0.2052
   6784 H2         -3.5220  -12.3790  -10.6260 H     2207  TIP2196     0.2052
   6785 OH2       -29.7040  -14.7890   -2.8000 O.3   2208  TIP2197    -0.4105
   6786 H1        -30.2240  -14.4340   -2.0790 H     2208  TIP2197     0.2052
   6787 H2        -28.9500  -15.1970   -2.3740 H     2208  TIP2197     0.2052
   6788 OH2       -16.0490  -16.2590    2.1840 O.3   2209  TIP2198    -0.4105
   6789 H1        -16.8600  -15.8870    1.8380 H     2209  TIP2198     0.2052
   6790 H2        -16.3170  -17.0840    2.5880 H     2209  TIP2198     0.2052
   6791 OH2        14.6290   16.5640   -5.1750 O.3   2210  TIP2199    -0.4105
   6792 H1         14.6510   17.4260   -4.7580 H     2210  TIP2199     0.2052
   6793 H2         15.3720   16.5700   -5.7780 H     2210  TIP2199     0.2052
   6794 OH2         2.6160   -3.4270  -15.8740 O.3   2211  TIP2200    -0.4105
   6795 H1          2.7250   -2.6720  -15.2970 H     2211  TIP2200     0.2052
   6796 H2          2.1280   -3.0880  -16.6250 H     2211  TIP2200     0.2052
   6797 OH2         5.8160   20.2500   13.9930 O.3   2212  TIP2201    -0.4105
   6798 H1          5.4500   19.3860   14.1830 H     2212  TIP2201     0.2052
   6799 H2          6.5250   20.0800   13.3730 H     2212  TIP2201     0.2052
   6800 OH2       -16.8780   27.6090    1.5110 O.3   2213  TIP2202    -0.4105
   6801 H1        -16.5830   28.1800    2.2200 H     2213  TIP2202     0.2052
   6802 H2        -16.4150   27.9280    0.7370 H     2213  TIP2202     0.2052
   6803 OH2        25.3500    5.7340  -11.8940 O.3   2214  TIP2203    -0.4105
   6804 H1         25.0740    6.1860  -11.0970 H     2214  TIP2203     0.2052
   6805 H2         25.4620    4.8220  -11.6270 H     2214  TIP2203     0.2052
   6806 OH2       -20.0130   35.0800   -4.9900 O.3   2215  TIP2204    -0.4105
   6807 H1        -20.5060   35.5410   -5.6690 H     2215  TIP2204     0.2052
   6808 H2        -19.1760   35.5420   -4.9450 H     2215  TIP2204     0.2052
   6809 OH2        29.0010    6.9010   -5.4330 O.3   2216  TIP2205    -0.4105
   6810 H1         28.3210    7.4480   -5.0390 H     2216  TIP2205     0.2052
   6811 H2         28.6270    6.6170   -6.2670 H     2216  TIP2205     0.2052
   6812 OH2         6.1310   -0.3080    5.3540 O.3   2217  TIP2206    -0.4105
   6813 H1          5.5660   -0.9830    5.7310 H     2217  TIP2206     0.2052
   6814 H2          5.5820    0.1260    4.7010 H     2217  TIP2206     0.2052
   6815 OH2         2.5160   15.3090  -18.4750 O.3   2218  TIP2207    -0.4105
   6816 H1          2.4900   15.7790  -17.6410 H     2218  TIP2207     0.2052
   6817 H2          2.2710   14.4110  -18.2520 H     2218  TIP2207     0.2052
   6818 OH2        17.0790   -3.8860  -14.9890 O.3   2219  TIP2208    -0.4105
   6819 H1         16.3910   -4.1170  -14.3650 H     2219  TIP2208     0.2052
   6820 H2         17.6960   -4.6160  -14.9480 H     2219  TIP2208     0.2052
   6821 OH2         9.3160  -25.8390  -11.8000 O.3   2220  TIP2209    -0.4105
   6822 H1          9.2820  -25.9180  -12.7530 H     2220  TIP2209     0.2052
   6823 H2         10.0900  -26.3400  -11.5450 H     2220  TIP2209     0.2052
   6824 OH2        -7.9540    8.0610  -22.6880 O.3   2221  TIP2210    -0.4105
   6825 H1         -8.8550    8.1940  -22.3920 H     2221  TIP2210     0.2052
   6826 H2         -7.8010    8.7680  -23.3150 H     2221  TIP2210     0.2052
   6827 OH2       -14.1020   -1.2120  -13.1070 O.3   2222  TIP2211    -0.4105
   6828 H1        -13.4880   -1.7970  -13.5530 H     2222  TIP2211     0.2052
   6829 H2        -13.6550   -0.3660  -13.0870 H     2222  TIP2211     0.2052
   6830 OH2        -1.4410   -2.0550  -20.3470 O.3   2223  TIP2212    -0.4105
   6831 H1         -1.1660   -2.0440  -21.2640 H     2223  TIP2212     0.2052
   6832 H2         -2.3420   -2.3800  -20.3710 H     2223  TIP2212     0.2052
   6833 OH2        23.6730  -22.4030   -3.9750 O.3   2224  TIP2213    -0.4105
   6834 H1         23.8890  -21.4710   -3.9720 H     2224  TIP2213     0.2052
   6835 H2         23.5930  -22.6350   -3.0500 H     2224  TIP2213     0.2052
   6836 OH2        -4.5140    8.9730   12.7340 O.3   2225  TIP2214    -0.4105
   6837 H1         -5.0400    9.0270   13.5310 H     2225  TIP2214     0.2052
   6838 H2         -4.8820    9.6420   12.1570 H     2225  TIP2214     0.2052
   6839 OH2        -6.9290   12.9990   12.5690 O.3   2226  TIP2215    -0.4105
   6840 H1         -7.1430   12.6160   13.4190 H     2226  TIP2215     0.2052
   6841 H2         -5.9830   12.8820   12.4840 H     2226  TIP2215     0.2052
   6842 OH2        11.1640   -9.6260   -1.7900 O.3   2227  TIP2216    -0.4105
   6843 H1         10.3770   -9.5360   -2.3260 H     2227  TIP2216     0.2052
   6844 H2         11.5290   -8.7410   -1.7490 H     2227  TIP2216     0.2052
   6845 OH2        -8.0790   15.9460   11.0070 O.3   2228  TIP2217    -0.4105
   6846 H1         -8.3080   15.7890   10.0910 H     2228  TIP2217     0.2052
   6847 H2         -8.6470   15.3540   11.5010 H     2228  TIP2217     0.2052
   6848 OH2        15.3000  -25.0330    2.1580 O.3   2229  TIP2218    -0.4105
   6849 H1         15.1370  -24.3120    1.5500 H     2229  TIP2218     0.2052
   6850 H2         15.4890  -25.7840    1.5950 H     2229  TIP2218     0.2052
   6851 OH2        -6.8260    3.1630    5.4270 O.3   2230  TIP2219    -0.4105
   6852 H1         -7.7430    3.4230    5.5160 H     2230  TIP2219     0.2052
   6853 H2         -6.3470    3.7820    5.9760 H     2230  TIP2219     0.2052
   6854 OH2        14.5460   11.3070   -5.0150 O.3   2231  TIP2220    -0.4105
   6855 H1         14.5060   12.2260   -5.2790 H     2231  TIP2220     0.2052
   6856 H2         15.0390   10.8780   -5.7140 H     2231  TIP2220     0.2052
   6857 OH2       -10.8000   -0.0820   15.0550 O.3   2232  TIP2221    -0.4105
   6858 H1        -11.3450   -0.7000   14.5690 H     2232  TIP2221     0.2052
   6859 H2         -9.9200   -0.4570   15.0180 H     2232  TIP2221     0.2052
   6860 OH2         5.5890   28.1220   19.0310 O.3   2233  TIP2222    -0.4105
   6861 H1          6.0480   28.4770   18.2700 H     2233  TIP2222     0.2052
   6862 H2          5.8410   28.6970   19.7540 H     2233  TIP2222     0.2052
   6863 OH2       -26.4690   11.5180   10.8020 O.3   2234  TIP2223    -0.4105
   6864 H1        -26.4260   11.2150    9.8950 H     2234  TIP2223     0.2052
   6865 H2        -27.0950   10.9270   11.2220 H     2234  TIP2223     0.2052
   6866 OH2       -21.4220   13.2660   -8.4910 O.3   2235  TIP2224    -0.4105
   6867 H1        -21.7770   14.1320   -8.6910 H     2235  TIP2224     0.2052
   6868 H2        -22.0760   12.8650   -7.9190 H     2235  TIP2224     0.2052
   6869 OH2       -30.4640    2.9500    8.4700 O.3   2236  TIP2225    -0.4105
   6870 H1        -30.5340    1.9990    8.3900 H     2236  TIP2225     0.2052
   6871 H2        -30.0800    3.0900    9.3350 H     2236  TIP2225     0.2052
   6872 OH2        14.7420   17.3110  -11.9010 O.3   2237  TIP2226    -0.4105
   6873 H1         14.4600   17.7640  -12.6960 H     2237  TIP2226     0.2052
   6874 H2         13.9360   17.1830  -11.4000 H     2237  TIP2226     0.2052
   6875 OH2         1.7460   -0.3060  -25.6010 O.3   2238  TIP2227    -0.4105
   6876 H1          1.6030    0.1740  -24.7840 H     2238  TIP2227     0.2052
   6877 H2          1.8630    0.3760  -26.2620 H     2238  TIP2227     0.2052
   6878 OH2        23.3650  -19.2510   -2.2500 O.3   2239  TIP2228    -0.4105
   6879 H1         24.2680  -18.9540   -2.1380 H     2239  TIP2228     0.2052
   6880 H2         22.8380  -18.5920   -1.7980 H     2239  TIP2228     0.2052
   6881 OH2        12.7980  -15.2540    6.4540 O.3   2240  TIP2229    -0.4105
   6882 H1         12.0430  -14.9480    5.9510 H     2240  TIP2229     0.2052
   6883 H2         12.7680  -14.7450    7.2640 H     2240  TIP2229     0.2052
   6884 OH2       -15.6920   -4.6600   -2.7690 O.3   2241  TIP2230    -0.4105
   6885 H1        -16.3370   -5.3480   -2.6050 H     2241  TIP2230     0.2052
   6886 H2        -16.0440   -4.1750   -3.5150 H     2241  TIP2230     0.2052
   6887 OH2        -1.8360  -11.3960   15.0970 O.3   2242  TIP2231    -0.4105
   6888 H1         -1.7800  -11.1230   14.1810 H     2242  TIP2231     0.2052
   6889 H2         -1.0150  -11.0980   15.4870 H     2242  TIP2231     0.2052
   6890 OH2        20.8230    4.9010    4.9330 O.3   2243  TIP2232    -0.4105
   6891 H1         20.0700    5.0950    4.3760 H     2243  TIP2232     0.2052
   6892 H2         21.4580    4.4910    4.3460 H     2243  TIP2232     0.2052
   6893 OH2        -8.4020    9.4360   -9.4050 O.3   2244  TIP2233    -0.4105
   6894 H1         -8.2330   10.0480   -8.6890 H     2244  TIP2233     0.2052
   6895 H2         -7.5480    9.0490   -9.5960 H     2244  TIP2233     0.2052
   6896 OH2        -2.7090   -0.1950   17.6200 O.3   2245  TIP2234    -0.4105
   6897 H1         -2.5450    0.6660   17.2360 H     2245  TIP2234     0.2052
   6898 H2         -1.9580   -0.3500   18.1940 H     2245  TIP2234     0.2052
   6899 OH2         3.9660  -23.7820  -14.2490 O.3   2246  TIP2235    -0.4105
   6900 H1          3.0600  -24.0880  -14.2900 H     2246  TIP2235     0.2052
   6901 H2          4.0430  -23.3760  -13.3860 H     2246  TIP2235     0.2052
   6902 OH2       -19.5390   -4.9100   22.2490 O.3   2247  TIP2236    -0.4105
   6903 H1        -18.9330   -4.5950   21.5780 H     2247  TIP2236     0.2052
   6904 H2        -19.2210   -5.7860   22.4670 H     2247  TIP2236     0.2052
   6905 OH2         7.3280   18.0600  -11.5560 O.3   2248  TIP2237    -0.4105
   6906 H1          7.1610   17.5880  -10.7400 H     2248  TIP2237     0.2052
   6907 H2          6.5100   18.5220  -11.7370 H     2248  TIP2237     0.2052
   6908 OH2         4.1660  -18.1020   23.3690 O.3   2249  TIP2238    -0.4105
   6909 H1          3.9640  -19.0280   23.2410 H     2249  TIP2238     0.2052
   6910 H2          5.0980  -18.0280   23.1650 H     2249  TIP2238     0.2052
   6911 OH2       -34.8800  -11.4240   15.0040 O.3   2250  TIP2239    -0.4105
   6912 H1        -34.8480  -12.1800   14.4180 H     2250  TIP2239     0.2052
   6913 H2        -35.2610  -10.7250   14.4740 H     2250  TIP2239     0.2052
   6914 OH2       -21.8930    0.5900   -8.3410 O.3   2251  TIP2240    -0.4105
   6915 H1        -21.5770    0.9310   -9.1770 H     2251  TIP2240     0.2052
   6916 H2        -22.8020    0.8860   -8.2890 H     2251  TIP2240     0.2052
   6917 OH2       -26.8850   -2.5930   -1.9720 O.3   2252  TIP2241    -0.4105
   6918 H1        -26.7370   -2.0420   -2.7400 H     2252  TIP2241     0.2052
   6919 H2        -27.2470   -1.9980   -1.3160 H     2252  TIP2241     0.2052
   6920 OH2        13.5920    5.8020   26.3900 O.3   2253  TIP2242    -0.4105
   6921 H1         14.1090    6.5050   25.9970 H     2253  TIP2242     0.2052
   6922 H2         12.6960    6.1390   26.3980 H     2253  TIP2242     0.2052
   6923 OH2        28.6030   14.6650    3.5940 O.3   2254  TIP2243    -0.4105
   6924 H1         28.0520   15.3120    4.0350 H     2254  TIP2243     0.2052
   6925 H2         27.9900   14.1310    3.0900 H     2254  TIP2243     0.2052
   6926 OH2         0.0170    1.6430   12.7720 O.3   2255  TIP2244    -0.4105
   6927 H1          0.4820    2.1640   13.4260 H     2255  TIP2244     0.2052
   6928 H2         -0.1120    0.7910   13.1910 H     2255  TIP2244     0.2052
   6929 OH2        20.0760    4.5010  -19.8730 O.3   2256  TIP2245    -0.4105
   6930 H1         20.2230    4.1190  -20.7380 H     2256  TIP2245     0.2052
   6931 H2         19.7340    3.7790  -19.3460 H     2256  TIP2245     0.2052
   6932 OH2        14.0930  -15.7500   -0.4550 O.3   2257  TIP2246    -0.4105
   6933 H1         14.6780  -15.5050   -1.1720 H     2257  TIP2246     0.2052
   6934 H2         13.3920  -15.1000   -0.4850 H     2257  TIP2246     0.2052
   6935 OH2        -3.3160  -14.2570  -13.0960 O.3   2258  TIP2247    -0.4105
   6936 H1         -2.4030  -14.1780  -13.3710 H     2258  TIP2247     0.2052
   6937 H2         -3.7160  -13.4240  -13.3460 H     2258  TIP2247     0.2052
   6938 OH2       -28.3850    8.5180   -1.6200 O.3   2259  TIP2248    -0.4105
   6939 H1        -27.9600    9.1500   -2.1990 H     2259  TIP2248     0.2052
   6940 H2        -29.1130    9.0020   -1.2290 H     2259  TIP2248     0.2052
   6941 OH2        -6.3360   -6.2580    5.8760 O.3   2260  TIP2249    -0.4105
   6942 H1         -6.3220   -5.3180    5.6990 H     2260  TIP2249     0.2052
   6943 H2         -5.4460   -6.4610    6.1670 H     2260  TIP2249     0.2052
   6944 OH2         0.1340  -16.9910   -6.6540 O.3   2261  TIP2250    -0.4105
   6945 H1          0.7890  -17.4070   -6.0940 H     2261  TIP2250     0.2052
   6946 H2          0.0860  -17.5560   -7.4260 H     2261  TIP2250     0.2052
   6947 OH2        21.9440    6.9180  -13.5890 O.3   2262  TIP2251    -0.4105
   6948 H1         21.2990    7.3860  -14.1190 H     2262  TIP2251     0.2052
   6949 H2         22.7370    7.4520  -13.6490 H     2262  TIP2251     0.2052
   6950 OH2       -10.1110  -19.4200   19.8210 O.3   2263  TIP2252    -0.4105
   6951 H1        -11.0280  -19.2210   19.6320 H     2263  TIP2252     0.2052
   6952 H2         -9.8880  -20.1240   19.2110 H     2263  TIP2252     0.2052
   6953 OH2         7.7180   -6.9460   -9.9050 O.3   2264  TIP2253    -0.4105
   6954 H1          7.7380   -6.3670  -10.6670 H     2264  TIP2253     0.2052
   6955 H2          7.3360   -7.7610  -10.2330 H     2264  TIP2253     0.2052
   6956 OH2        10.4260  -16.4190   17.3860 O.3   2265  TIP2254    -0.4105
   6957 H1         10.1710  -15.8500   18.1120 H     2265  TIP2254     0.2052
   6958 H2         11.2010  -15.9990   17.0130 H     2265  TIP2254     0.2052
   6959 OH2         5.6110  -28.8020   -7.9860 O.3   2266  TIP2255    -0.4105
   6960 H1          5.7550  -27.9810   -7.5160 H     2266  TIP2255     0.2052
   6961 H2          4.7850  -28.6700   -8.4520 H     2266  TIP2255     0.2052
   6962 OH2        -3.7120  -14.3100   37.9270 O.3   2267  TIP2256    -0.4105
   6963 H1         -4.0470  -13.4460   37.6870 H     2267  TIP2256     0.2052
   6964 H2         -2.9960  -14.1290   38.5370 H     2267  TIP2256     0.2052
   6965 OH2        15.9070   -0.4900  -19.8240 O.3   2268  TIP2257    -0.4105
   6966 H1         15.2220   -1.1510  -19.7250 H     2268  TIP2257     0.2052
   6967 H2         16.1380   -0.5220  -20.7520 H     2268  TIP2257     0.2052
   6968 OH2       -13.3310   13.5030    2.4740 O.3   2269  TIP2258    -0.4105
   6969 H1        -14.1260   13.2000    2.9130 H     2269  TIP2258     0.2052
   6970 H2        -12.7050   12.7880    2.5890 H     2269  TIP2258     0.2052
   6971 OH2        -4.4770   -2.7790  -31.7340 O.3   2270  TIP2259    -0.4105
   6972 H1         -5.3020   -3.2630  -31.7690 H     2270  TIP2259     0.2052
   6973 H2         -4.6780   -1.9320  -32.1310 H     2270  TIP2259     0.2052
   6974 OH2        -7.8220  -10.3710    2.2850 O.3   2271  TIP2260    -0.4105
   6975 H1         -7.7020  -10.5900    1.3610 H     2271  TIP2260     0.2052
   6976 H2         -8.7650  -10.2310    2.3770 H     2271  TIP2260     0.2052
   6977 OH2         3.1580    5.1110  -17.7020 O.3   2272  TIP2261    -0.4105
   6978 H1          3.2970    6.0470  -17.5590 H     2272  TIP2261     0.2052
   6979 H2          3.8540    4.6860  -17.2010 H     2272  TIP2261     0.2052
   6980 OH2         5.5130   16.1990    6.5020 O.3   2273  TIP2262    -0.4105
   6981 H1          5.5370   16.4990    5.5940 H     2273  TIP2262     0.2052
   6982 H2          5.0360   15.3700    6.4690 H     2273  TIP2262     0.2052
   6983 OH2         2.1720    5.0390   33.5070 O.3   2274  TIP2263    -0.4105
   6984 H1          1.3860    4.7470   33.9700 H     2274  TIP2263     0.2052
   6985 H2          2.5630    5.6930   34.0860 H     2274  TIP2263     0.2052
   6986 OH2         9.1720   24.0050   18.2150 O.3   2275  TIP2264    -0.4105
   6987 H1          9.8740   23.3540   18.2000 H     2275  TIP2264     0.2052
   6988 H2          8.3660   23.4880   18.2120 H     2275  TIP2264     0.2052
   6989 OH2       -32.3420  -11.8700   17.3600 O.3   2276  TIP2265    -0.4105
   6990 H1        -32.2510  -12.6600   16.8280 H     2276  TIP2265     0.2052
   6991 H2        -32.2930  -12.1820   18.2640 H     2276  TIP2265     0.2052
   6992 OH2       -26.6300    1.2230   10.9670 O.3   2277  TIP2266    -0.4105
   6993 H1        -26.0090    0.7690   11.5360 H     2277  TIP2266     0.2052
   6994 H2        -26.3650    0.9800   10.0800 H     2277  TIP2266     0.2052
   6995 OH2        16.5460   15.9330   -6.8940 O.3   2278  TIP2267    -0.4105
   6996 H1         17.3670   15.6430   -6.4960 H     2278  TIP2267     0.2052
   6997 H2         16.8120   16.5880   -7.5410 H     2278  TIP2267     0.2052
   6998 OH2       -19.8130   23.0440   -1.5670 O.3   2279  TIP2268    -0.4105
   6999 H1        -19.6880   22.7750   -2.4770 H     2279  TIP2268     0.2052
   7000 H2        -19.4000   23.9060   -1.5130 H     2279  TIP2268     0.2052
   7001 OH2         4.1760   28.2920   23.1900 O.3   2280  TIP2269    -0.4105
   7002 H1          3.8860   27.5630   22.6410 H     2280  TIP2269     0.2052
   7003 H2          5.0040   28.5710   22.7990 H     2280  TIP2269     0.2052
   7004 OH2        22.6660   10.5730   11.1460 O.3   2281  TIP2270    -0.4105
   7005 H1         23.1720   11.2560   10.7080 H     2281  TIP2270     0.2052
   7006 H2         21.8780   10.4760   10.6100 H     2281  TIP2270     0.2052
   7007 OH2        19.7920   -3.6540   12.5980 O.3   2282  TIP2271    -0.4105
   7008 H1         20.1180   -2.8080   12.9040 H     2282  TIP2271     0.2052
   7009 H2         19.1430   -3.4340   11.9300 H     2282  TIP2271     0.2052
   7010 OH2        -0.2550   22.5110   18.6090 O.3   2283  TIP2272    -0.4105
   7011 H1         -1.0210   22.1600   18.1550 H     2283  TIP2272     0.2052
   7012 H2         -0.3540   22.2110   19.5130 H     2283  TIP2272     0.2052
   7013 OH2        12.0950   13.8820   18.4980 O.3   2284  TIP2273    -0.4105
   7014 H1         11.2570   14.1820   18.1450 H     2284  TIP2273     0.2052
   7015 H2         11.8800   13.5400   19.3660 H     2284  TIP2273     0.2052
   7016 OH2        -5.9590   25.8490   17.9930 O.3   2285  TIP2274    -0.4105
   7017 H1         -5.9770   25.2680   17.2320 H     2285  TIP2274     0.2052
   7018 H2         -6.8390   25.7860   18.3640 H     2285  TIP2274     0.2052
   7019 OH2        15.7250    3.6350   -9.8320 O.3   2286  TIP2275    -0.4105
   7020 H1         15.4190    4.4650  -10.1980 H     2286  TIP2275     0.2052
   7021 H2         15.9350    3.0990  -10.5970 H     2286  TIP2275     0.2052
   7022 OH2        -2.8720  -23.4020   -0.9620 O.3   2287  TIP2276    -0.4105
   7023 H1         -2.4550  -24.2040   -1.2770 H     2287  TIP2276     0.2052
   7024 H2         -3.5600  -23.2230   -1.6020 H     2287  TIP2276     0.2052
   7025 OH2        -9.7380  -11.2430   14.1940 O.3   2288  TIP2277    -0.4105
   7026 H1         -8.9550  -10.7280   14.0000 H     2288  TIP2277     0.2052
   7027 H2         -9.7970  -11.8710   13.4740 H     2288  TIP2277     0.2052
   7028 OH2        27.6440   16.2070   11.1670 O.3   2289  TIP2278    -0.4105
   7029 H1         28.3660   16.5830   11.6710 H     2289  TIP2278     0.2052
   7030 H2         27.6970   15.2660   11.3360 H     2289  TIP2278     0.2052
   7031 OH2        19.4180   -5.9750   -4.1180 O.3   2290  TIP2279    -0.4105
   7032 H1         19.3950   -6.3250   -5.0080 H     2290  TIP2279     0.2052
   7033 H2         20.2070   -5.4350   -4.0930 H     2290  TIP2279     0.2052
   7034 OH2        -5.0290    6.6790  -24.0080 O.3   2291  TIP2280    -0.4105
   7035 H1         -5.8340    7.1730  -24.1620 H     2291  TIP2280     0.2052
   7036 H2         -4.4230    7.3180  -23.6320 H     2291  TIP2280     0.2052
   7037 OH2         8.5330  -11.7590    2.4780 O.3   2292  TIP2281    -0.4105
   7038 H1          9.2350  -11.1690    2.2050 H     2292  TIP2281     0.2052
   7039 H2          8.5700  -11.7500    3.4340 H     2292  TIP2281     0.2052
   7040 OH2        17.6130  -14.8250   13.6560 O.3   2293  TIP2282    -0.4105
   7041 H1         17.1320  -15.4500   14.1990 H     2293  TIP2282     0.2052
   7042 H2         17.0200  -14.0800   13.5650 H     2293  TIP2282     0.2052
   7043 OH2        -2.0060    7.9090   -4.5650 O.3   2294  TIP2283    -0.4105
   7044 H1         -1.8120    7.6170   -5.4550 H     2294  TIP2283     0.2052
   7045 H2         -2.8370    8.3780   -4.6410 H     2294  TIP2283     0.2052
   7046 OH2         3.2850  -22.5120   30.9710 O.3   2295  TIP2284    -0.4105
   7047 H1          2.9180  -21.6280   30.9890 H     2295  TIP2284     0.2052
   7048 H2          3.5760  -22.6330   30.0680 H     2295  TIP2284     0.2052
   7049 OH2        15.6060  -11.3620   -5.6780 O.3   2296  TIP2285    -0.4105
   7050 H1         14.8460  -10.8000   -5.5220 H     2296  TIP2285     0.2052
   7051 H2         16.0570  -11.3950   -4.8350 H     2296  TIP2285     0.2052
   7052 OH2         9.9830   -0.3970   -1.7750 O.3   2297  TIP2286    -0.4105
   7053 H1         10.0830   -0.3960   -2.7270 H     2297  TIP2286     0.2052
   7054 H2         10.6130   -1.0490   -1.4690 H     2297  TIP2286     0.2052
   7055 OH2       -25.1520   -3.9540   10.5720 O.3   2298  TIP2287    -0.4105
   7056 H1        -25.9240   -3.6740   11.0640 H     2298  TIP2287     0.2052
   7057 H2        -24.6070   -3.1690   10.5140 H     2298  TIP2287     0.2052
   7058 OH2        -5.5990    8.4780   23.0550 O.3   2299  TIP2288    -0.4105
   7059 H1         -6.0320    8.7660   23.8590 H     2299  TIP2288     0.2052
   7060 H2         -4.8010    8.0430   23.3540 H     2299  TIP2288     0.2052
   7061 OH2        -7.1140  -14.3600   32.5800 O.3   2300  TIP2289    -0.4105
   7062 H1         -6.9410  -13.6990   33.2510 H     2300  TIP2289     0.2052
   7063 H2         -7.5890  -13.8890   31.8960 H     2300  TIP2289     0.2052
   7064 OH2       -17.5030   -6.9600    3.1580 O.3   2301  TIP2290    -0.4105
   7065 H1        -18.2790   -6.7300    2.6480 H     2301  TIP2290     0.2052
   7066 H2        -17.4520   -7.9140    3.1010 H     2301  TIP2290     0.2052
   7067 OH2        -1.7140  -16.2580   33.6910 O.3   2302  TIP2291    -0.4105
   7068 H1         -0.7650  -16.3180   33.5780 H     2302  TIP2291     0.2052
   7069 H2         -1.8330  -15.6170   34.3910 H     2302  TIP2291     0.2052
   7070 OH2         8.5850    1.9930   -2.0930 O.3   2303  TIP2292    -0.4105
   7071 H1          8.7880    1.0580   -2.1410 H     2303  TIP2292     0.2052
   7072 H2          7.6300    2.0280   -2.0290 H     2303  TIP2292     0.2052
   7073 OH2        23.4790   17.9490    1.0380 O.3   2304  TIP2293    -0.4105
   7074 H1         23.6370   18.8290    1.3810 H     2304  TIP2293     0.2052
   7075 H2         23.6790   18.0160    0.1040 H     2304  TIP2293     0.2052
   7076 OH2        19.0280    1.6390    0.6300 O.3   2305  TIP2294    -0.4105
   7077 H1         18.6830    1.1300   -0.1040 H     2305  TIP2294     0.2052
   7078 H2         19.5980    2.2910    0.2220 H     2305  TIP2294     0.2052
   7079 OH2       -10.5080  -20.9650    1.1800 O.3   2306  TIP2295    -0.4105
   7080 H1        -11.0410  -20.6930    0.4320 H     2306  TIP2295     0.2052
   7081 H2         -9.6080  -20.7770    0.9140 H     2306  TIP2295     0.2052
   7082 OH2        11.2000  -10.8180  -13.9630 O.3   2307  TIP2296    -0.4105
   7083 H1         10.9230  -10.5140  -14.8270 H     2307  TIP2296     0.2052
   7084 H2         10.6410  -10.3410  -13.3500 H     2307  TIP2296     0.2052
   7085 OH2        -4.6900   -9.1120   13.7900 O.3   2308  TIP2297    -0.4105
   7086 H1         -4.1420   -9.7260   14.2780 H     2308  TIP2297     0.2052
   7087 H2         -4.2480   -9.0150   12.9460 H     2308  TIP2297     0.2052
   7088 OH2        30.1130    4.3610  -10.0510 O.3   2309  TIP2298    -0.4105
   7089 H1         30.2860    4.0400  -10.9360 H     2309  TIP2298     0.2052
   7090 H2         29.3770    4.9640  -10.1540 H     2309  TIP2298     0.2052
   7091 OH2        -4.5590   -3.1470   24.3480 O.3   2310  TIP2299    -0.4105
   7092 H1         -4.0640   -2.7220   25.0480 H     2310  TIP2299     0.2052
   7093 H2         -3.9780   -3.8380   24.0290 H     2310  TIP2299     0.2052
   7094 OH2         2.5560   25.9830   10.2820 O.3   2311  TIP2300    -0.4105
   7095 H1          3.0500   26.4260    9.5920 H     2311  TIP2300     0.2052
   7096 H2          1.6660   25.9180    9.9370 H     2311  TIP2300     0.2052
   7097 OH2        11.6210   -5.6060  -20.0160 O.3   2312  TIP2301    -0.4105
   7098 H1         12.1550   -5.5190  -19.2260 H     2312  TIP2301     0.2052
   7099 H2         12.2550   -5.6370  -20.7320 H     2312  TIP2301     0.2052
   7100 OH2        22.0950    2.0000    6.8500 O.3   2313  TIP2302    -0.4105
   7101 H1         22.4920    2.8610    6.9790 H     2313  TIP2302     0.2052
   7102 H2         22.5830    1.6180    6.1200 H     2313  TIP2302     0.2052
   7103 OH2         1.6980   -6.2980   11.2970 O.3   2314  TIP2303    -0.4105
   7104 H1          2.1170   -5.4670   11.5200 H     2314  TIP2303     0.2052
   7105 H2          1.8080   -6.3760   10.3490 H     2314  TIP2303     0.2052
   7106 OH2       -25.6670  -13.5410   -3.5400 O.3   2315  TIP2304    -0.4105
   7107 H1        -26.4510  -13.7090   -4.0630 H     2315  TIP2304     0.2052
   7108 H2        -25.3860  -14.4060   -3.2420 H     2315  TIP2304     0.2052
   7109 OH2         3.8220   22.5610   -7.4870 O.3   2316  TIP2305    -0.4105
   7110 H1          2.9470   22.7980   -7.1800 H     2316  TIP2305     0.2052
   7111 H2          4.2040   23.3870   -7.7820 H     2316  TIP2305     0.2052
   7112 OH2        11.5190  -19.5650   20.1420 O.3   2317  TIP2306    -0.4105
   7113 H1         11.6540  -20.4740   20.4080 H     2317  TIP2306     0.2052
   7114 H2         12.0500  -19.0550   20.7540 H     2317  TIP2306     0.2052
   7115 OH2         7.0460  -19.4820   17.8310 O.3   2318  TIP2307    -0.4105
   7116 H1          6.9440  -19.3910   16.8840 H     2318  TIP2307     0.2052
   7117 H2          6.8750  -20.4080   18.0030 H     2318  TIP2307     0.2052
   7118 OH2        -1.3950   14.9710  -33.5000 O.3   2319  TIP2308    -0.4105
   7119 H1         -1.2190   15.4030  -34.3350 H     2319  TIP2308     0.2052
   7120 H2         -0.6050   15.1200  -32.9800 H     2319  TIP2308     0.2052
   7121 OH2       -24.9750  -10.9590    7.0660 O.3   2320  TIP2309    -0.4105
   7122 H1        -25.8730  -10.9290    7.3960 H     2320  TIP2309     0.2052
   7123 H2        -24.5030  -11.4960    7.7030 H     2320  TIP2309     0.2052
   7124 OH2        -7.4470    3.5420   -5.0730 O.3   2321  TIP2310    -0.4105
   7125 H1         -6.7100    3.9710   -4.6380 H     2321  TIP2310     0.2052
   7126 H2         -7.1880    2.6220   -5.1310 H     2321  TIP2310     0.2052
   7127 OH2        15.5920    8.8240   -6.3010 O.3   2322  TIP2311    -0.4105
   7128 H1         14.7130    8.4510   -6.2360 H     2322  TIP2311     0.2052
   7129 H2         16.0710    8.2140   -6.8620 H     2322  TIP2311     0.2052
   7130 OH2        -2.7770  -18.5250   -8.6140 O.3   2323  TIP2312    -0.4105
   7131 H1         -3.1290  -19.3840   -8.8450 H     2323  TIP2312     0.2052
   7132 H2         -1.8620  -18.5570   -8.8950 H     2323  TIP2312     0.2052
   7133 OH2        13.0560   15.5470   31.2170 O.3   2324  TIP2313    -0.4105
   7134 H1         12.6600   16.4030   31.3780 H     2324  TIP2313     0.2052
   7135 H2         13.8410   15.5390   31.7650 H     2324  TIP2313     0.2052
   7136 OH2       -18.3420  -10.0040    9.7040 O.3   2325  TIP2314    -0.4105
   7137 H1        -18.9320  -10.3090    9.0150 H     2325  TIP2314     0.2052
   7138 H2        -18.8150  -10.1730   10.5180 H     2325  TIP2314     0.2052
   7139 OH2        -3.7640   28.8150    5.4420 O.3   2326  TIP2315    -0.4105
   7140 H1         -3.7030   28.7740    4.4880 H     2326  TIP2315     0.2052
   7141 H2         -2.9010   28.5390    5.7500 H     2326  TIP2315     0.2052
   7142 OH2       -12.3030  -10.3680   -2.3060 O.3   2327  TIP2316    -0.4105
   7143 H1        -12.3080   -9.7080   -3.0000 H     2327  TIP2316     0.2052
   7144 H2        -12.1430  -11.1940   -2.7610 H     2327  TIP2316     0.2052
   7145 OH2        -8.2480  -20.7960   -0.0270 O.3   2328  TIP2317    -0.4105
   7146 H1         -8.1180  -21.4830   -0.6800 H     2328  TIP2317     0.2052
   7147 H2         -8.5200  -20.0310   -0.5340 H     2328  TIP2317     0.2052
   7148 OH2        -3.3620    1.6340   -3.4410 O.3   2329  TIP2318    -0.4105
   7149 H1         -3.1620    0.7710   -3.8030 H     2329  TIP2318     0.2052
   7150 H2         -3.0000    1.6130   -2.5550 H     2329  TIP2318     0.2052
   7151 OH2        -7.9240  -10.5230   32.0990 O.3   2330  TIP2319    -0.4105
   7152 H1         -7.5760  -10.7470   32.9620 H     2330  TIP2319     0.2052
   7153 H2         -8.7950  -10.1670   32.2770 H     2330  TIP2319     0.2052
   7154 OH2         6.1890   21.2170  -14.5400 O.3   2331  TIP2320    -0.4105
   7155 H1          6.8950   20.6790  -14.1790 H     2331  TIP2320     0.2052
   7156 H2          6.6390   21.9410  -14.9760 H     2331  TIP2320     0.2052
   7157 OH2        20.4290  -16.7510    6.5550 O.3   2332  TIP2321    -0.4105
   7158 H1         20.0390  -16.3310    7.3210 H     2332  TIP2321     0.2052
   7159 H2         20.9990  -17.4290    6.9170 H     2332  TIP2321     0.2052
   7160 OH2       -16.1430   -5.5060   14.7800 O.3   2333  TIP2322    -0.4105
   7161 H1        -15.4760   -5.3970   14.1020 H     2333  TIP2322     0.2052
   7162 H2        -16.9160   -5.8150   14.3080 H     2333  TIP2322     0.2052
   7163 OH2        14.9470  -23.0020    0.3550 O.3   2334  TIP2323    -0.4105
   7164 H1         15.0970  -22.3740   -0.3510 H     2334  TIP2323     0.2052
   7165 H2         13.9960  -23.0200    0.4620 H     2334  TIP2323     0.2052
   7166 OH2       -24.6360   12.4510   -1.8550 O.3   2335  TIP2324    -0.4105
   7167 H1        -23.9560   13.0960   -1.6590 H     2335  TIP2324     0.2052
   7168 H2        -25.3290   12.9550   -2.2830 H     2335  TIP2324     0.2052
   7169 OH2        23.5380    9.5070   -0.2040 O.3   2336  TIP2325    -0.4105
   7170 H1         24.2160   10.0590    0.1870 H     2336  TIP2325     0.2052
   7171 H2         23.9610    8.6570   -0.3250 H     2336  TIP2325     0.2052
   7172 OH2        -1.5720  -19.1860   30.2050 O.3   2337  TIP2326    -0.4105
   7173 H1         -2.2530  -18.8530   30.7900 H     2337  TIP2326     0.2052
   7174 H2         -2.0450  -19.7230   29.5680 H     2337  TIP2326     0.2052
   7175 OH2        14.0740   21.1600    4.3170 O.3   2338  TIP2327    -0.4105
   7176 H1         14.6260   21.1750    5.0990 H     2338  TIP2327     0.2052
   7177 H2         13.6150   22.0000    4.3320 H     2338  TIP2327     0.2052
   7178 OH2        -2.7950   19.7340   13.2770 O.3   2339  TIP2328    -0.4105
   7179 H1         -2.7240   19.4640   14.1930 H     2339  TIP2328     0.2052
   7180 H2         -2.0190   20.2740   13.1250 H     2339  TIP2328     0.2052
   7181 OH2        -1.7360  -15.8980  -22.4270 O.3   2340  TIP2329    -0.4105
   7182 H1         -2.2710  -16.5540  -22.8730 H     2340  TIP2329     0.2052
   7183 H2         -1.7550  -15.1370  -23.0070 H     2340  TIP2329     0.2052
   7184 OH2        -7.7720  -10.9100  -26.3930 O.3   2341  TIP2330    -0.4105
   7185 H1         -7.2300  -10.7990  -25.6120 H     2341  TIP2330     0.2052
   7186 H2         -7.3010  -11.5530  -26.9230 H     2341  TIP2330     0.2052
   7187 OH2        -8.0490   -7.4810  -24.9470 O.3   2342  TIP2331    -0.4105
   7188 H1         -8.7750   -7.7090  -24.3670 H     2342  TIP2331     0.2052
   7189 H2         -8.1710   -6.5500  -25.1300 H     2342  TIP2331     0.2052
   7190 OH2       -16.3570   16.2830  -10.5820 O.3   2343  TIP2332    -0.4105
   7191 H1        -15.8200   16.7220  -11.2410 H     2343  TIP2332     0.2052
   7192 H2        -15.8180   16.2850   -9.7910 H     2343  TIP2332     0.2052
   7193 OH2         1.2210    3.7590   14.0320 O.3   2344  TIP2333    -0.4105
   7194 H1          1.6160    4.1180   13.2380 H     2344  TIP2333     0.2052
   7195 H2          1.5060    4.3500   14.7300 H     2344  TIP2333     0.2052
   7196 OH2       -19.3470   11.9730   -7.2200 O.3   2345  TIP2334    -0.4105
   7197 H1        -18.5930   11.9260   -7.8080 H     2345  TIP2334     0.2052
   7198 H2        -19.9250   12.6220   -7.6220 H     2345  TIP2334     0.2052
   7199 OH2        16.7360   12.5400   23.2760 O.3   2346  TIP2335    -0.4105
   7200 H1         16.3070   12.5700   24.1310 H     2346  TIP2335     0.2052
   7201 H2         16.1260   12.9820   22.6860 H     2346  TIP2335     0.2052
   7202 OH2        -1.2760    4.6050  -30.2600 O.3   2347  TIP2336    -0.4105
   7203 H1         -0.8820    5.0870  -29.5330 H     2347  TIP2336     0.2052
   7204 H2         -1.0160    5.0950  -31.0410 H     2347  TIP2336     0.2052
   7205 OH2       -21.2150   13.4910   13.6510 O.3   2348  TIP2337    -0.4105
   7206 H1        -21.9800   12.9990   13.9470 H     2348  TIP2337     0.2052
   7207 H2        -21.2660   13.4630   12.6960 H     2348  TIP2337     0.2052
   7208 OH2         6.5070  -20.0860    2.1560 O.3   2349  TIP2338    -0.4105
   7209 H1          7.0550  -19.5890    2.7620 H     2349  TIP2338     0.2052
   7210 H2          5.8700  -20.5290    2.7170 H     2349  TIP2338     0.2052
   7211 OH2       -12.6430   12.3860  -18.3630 O.3   2350  TIP2339    -0.4105
   7212 H1        -13.2400   12.2670  -17.6250 H     2350  TIP2339     0.2052
   7213 H2        -12.2080   11.5390  -18.4590 H     2350  TIP2339     0.2052
   7214 OH2       -13.3460  -11.0380   29.8280 O.3   2351  TIP2340    -0.4105
   7215 H1        -14.2080  -11.2610   30.1790 H     2351  TIP2340     0.2052
   7216 H2        -13.0720  -10.2720   30.3330 H     2351  TIP2340     0.2052
   7217 OH2         2.2450   11.3780  -28.1870 O.3   2352  TIP2341    -0.4105
   7218 H1          2.1610   11.6850  -27.2840 H     2352  TIP2341     0.2052
   7219 H2          1.4570   11.7000  -28.6250 H     2352  TIP2341     0.2052
   7220 OH2        -3.0580    4.3710   10.3360 O.3   2353  TIP2342    -0.4105
   7221 H1         -3.4680    4.8530    9.6180 H     2353  TIP2342     0.2052
   7222 H2         -3.4940    4.6970   11.1240 H     2353  TIP2342     0.2052
   7223 OH2        16.9260  -26.6020    9.9460 O.3   2354  TIP2343    -0.4105
   7224 H1         16.9800  -27.1760   10.7110 H     2354  TIP2343     0.2052
   7225 H2         16.1680  -26.9230    9.4590 H     2354  TIP2343     0.2052
   7226 OH2        10.7380    5.9170   -4.9370 O.3   2355  TIP2344    -0.4105
   7227 H1         11.6660    6.0180   -5.1480 H     2355  TIP2344     0.2052
   7228 H2         10.6420    4.9920   -4.7110 H     2355  TIP2344     0.2052
   7229 OH2        24.1410   -8.9600  -10.8110 O.3   2356  TIP2345    -0.4105
   7230 H1         24.6130   -9.6800  -10.3930 H     2356  TIP2345     0.2052
   7231 H2         24.1110   -9.1980  -11.7380 H     2356  TIP2345     0.2052
   7232 OH2        12.8000  -17.6500    1.2500 O.3   2357  TIP2346    -0.4105
   7233 H1         12.1180  -17.4360    0.6140 H     2357  TIP2346     0.2052
   7234 H2         13.2740  -16.8290    1.3810 H     2357  TIP2346     0.2052
   7235 OH2         2.7330   19.1490   -8.8220 O.3   2358  TIP2347    -0.4105
   7236 H1          1.9040   18.7260   -8.5960 H     2358  TIP2347     0.2052
   7237 H2          2.6590   20.0310   -8.4590 H     2358  TIP2347     0.2052
   7238 OH2        10.9850    6.6880  -19.9520 O.3   2359  TIP2348    -0.4105
   7239 H1         10.5790    7.5270  -19.7320 H     2359  TIP2348     0.2052
   7240 H2         11.6440    6.9050  -20.6110 H     2359  TIP2348     0.2052
   7241 OH2        -1.4760   14.8080   20.2610 O.3   2360  TIP2349    -0.4105
   7242 H1         -1.8160   15.6730   20.4900 H     2360  TIP2349     0.2052
   7243 H2         -2.0940   14.4710   19.6130 H     2360  TIP2349     0.2052
   7244 OH2       -12.1280   11.5020  -13.7920 O.3   2361  TIP2350    -0.4105
   7245 H1        -11.6400   12.0270  -13.1590 H     2361  TIP2350     0.2052
   7246 H2        -12.3390   10.6940  -13.3230 H     2361  TIP2350     0.2052
   7247 OH2       -32.9270   -2.2740   -0.9700 O.3   2362  TIP2351    -0.4105
   7248 H1        -32.8340   -2.6190   -1.8580 H     2362  TIP2351     0.2052
   7249 H2        -33.3730   -1.4340   -1.0830 H     2362  TIP2351     0.2052
   7250 OH2       -16.1780  -14.2400   20.7680 O.3   2363  TIP2352    -0.4105
   7251 H1        -15.2270  -14.1710   20.8480 H     2363  TIP2352     0.2052
   7252 H2        -16.4010  -13.6590   20.0410 H     2363  TIP2352     0.2052
   7253 OH2         8.3060    9.3380    9.1730 O.3   2364  TIP2353    -0.4105
   7254 H1          8.1320    9.5190   10.0970 H     2364  TIP2353     0.2052
   7255 H2          9.2580    9.3900    9.0930 H     2364  TIP2353     0.2052
   7256 OH2         3.8830   19.1070  -14.6220 O.3   2365  TIP2354    -0.4105
   7257 H1          3.5000   19.2790  -13.7610 H     2365  TIP2354     0.2052
   7258 H2          4.4730   19.8450  -14.7730 H     2365  TIP2354     0.2052
   7259 OH2         8.5000   -2.0030  -19.7020 O.3   2366  TIP2355    -0.4105
   7260 H1          7.5640   -2.1030  -19.8720 H     2366  TIP2355     0.2052
   7261 H2          8.9040   -2.7590  -20.1280 H     2366  TIP2355     0.2052
   7262 OH2       -33.5280   -8.8420    5.0580 O.3   2367  TIP2356    -0.4105
   7263 H1        -33.0680   -9.6750    4.9570 H     2367  TIP2356     0.2052
   7264 H2        -33.3210   -8.3550    4.2600 H     2367  TIP2356     0.2052
   7265 OH2       -14.0200    6.2640   19.7360 O.3   2368  TIP2357    -0.4105
   7266 H1        -13.8340    7.0220   19.1820 H     2368  TIP2357     0.2052
   7267 H2        -14.6600    6.5830   20.3720 H     2368  TIP2357     0.2052
   7268 OH2         7.0260    7.4110   31.3610 O.3   2369  TIP2358    -0.4105
   7269 H1          7.7850    7.8790   31.7090 H     2369  TIP2358     0.2052
   7270 H2          6.8910    7.7850   30.4900 H     2369  TIP2358     0.2052
   7271 OH2       -13.9700  -13.4770   14.1490 O.3   2370  TIP2359    -0.4105
   7272 H1        -14.1250  -13.1860   15.0480 H     2370  TIP2359     0.2052
   7273 H2        -13.6180  -14.3620   14.2410 H     2370  TIP2359     0.2052
   7274 OH2       -22.1800   -7.0730   23.3910 O.3   2371  TIP2360    -0.4105
   7275 H1        -22.8970   -7.7010   23.3010 H     2371  TIP2360     0.2052
   7276 H2        -22.4700   -6.4750   24.0790 H     2371  TIP2360     0.2052
   7277 OH2       -14.2450   14.0110   13.8590 O.3   2372  TIP2361    -0.4105
   7278 H1        -13.9310   13.9480   14.7600 H     2372  TIP2361     0.2052
   7279 H2        -15.0780   13.5400   13.8610 H     2372  TIP2361     0.2052
   7280 OH2       -12.4960  -12.7550    9.1570 O.3   2373  TIP2362    -0.4105
   7281 H1        -13.1000  -12.6660    9.8950 H     2373  TIP2362     0.2052
   7282 H2        -13.0470  -13.0500    8.4320 H     2373  TIP2362     0.2052
   7283 OH2        28.6880   11.2600  -12.7760 O.3   2374  TIP2363    -0.4105
   7284 H1         28.2440   10.4750  -13.0960 H     2374  TIP2363     0.2052
   7285 H2         29.2090   11.5620  -13.5200 H     2374  TIP2363     0.2052
   7286 OH2       -15.7770  -15.7960  -25.0950 O.3   2375  TIP2364    -0.4105
   7287 H1        -15.1220  -15.1300  -25.3030 H     2375  TIP2364     0.2052
   7288 H2        -16.1430  -15.5170  -24.2560 H     2375  TIP2364     0.2052
   7289 OH2         9.1210   -3.0490   -9.9330 O.3   2376  TIP2365    -0.4105
   7290 H1          8.8250   -2.1870  -10.2230 H     2376  TIP2365     0.2052
   7291 H2          8.5900   -3.6670  -10.4360 H     2376  TIP2365     0.2052
   7292 OH2       -16.0410    2.0590   23.1020 O.3   2377  TIP2366    -0.4105
   7293 H1        -15.5150    1.2840   23.3010 H     2377  TIP2366     0.2052
   7294 H2        -16.9110    1.8520   23.4430 H     2377  TIP2366     0.2052
   7295 OH2       -11.7500   29.4470    0.8540 O.3   2378  TIP2367    -0.4105
   7296 H1        -11.8170   29.2340   -0.0770 H     2378  TIP2367     0.2052
   7297 H2        -10.9940   30.0320    0.9130 H     2378  TIP2367     0.2052
   7298 OH2        10.1200   15.1930   17.3040 O.3   2379  TIP2368    -0.4105
   7299 H1          9.5290   15.6440   17.9070 H     2379  TIP2368     0.2052
   7300 H2          9.6200   14.4350   17.0010 H     2379  TIP2368     0.2052
   7301 OH2       -18.3520  -15.4400    4.6180 O.3   2380  TIP2369    -0.4105
   7302 H1        -17.4820  -15.1410    4.8820 H     2380  TIP2369     0.2052
   7303 H2        -18.9440  -14.7490    4.9130 H     2380  TIP2369     0.2052
   7304 OH2       -27.4360   -4.8970    5.1380 O.3   2381  TIP2370    -0.4105
   7305 H1        -28.2430   -5.3780    5.3220 H     2381  TIP2370     0.2052
   7306 H2        -27.5150   -4.6380    4.2200 H     2381  TIP2370     0.2052
   7307 OH2        -5.2940  -23.5550   10.8490 O.3   2382  TIP2371    -0.4105
   7308 H1         -4.8000  -23.1270   11.5490 H     2382  TIP2371     0.2052
   7309 H2         -5.0490  -23.0770   10.0560 H     2382  TIP2371     0.2052
   7310 OH2       -10.4840  -10.4500   29.7590 O.3   2383  TIP2372    -0.4105
   7311 H1        -11.1550  -10.8260   29.1910 H     2383  TIP2372     0.2052
   7312 H2        -10.0470   -9.7960   29.2130 H     2383  TIP2372     0.2052
   7313 OH2        -7.5560   19.4830   16.4220 O.3   2384  TIP2373    -0.4105
   7314 H1         -6.7160   19.7590   16.0540 H     2384  TIP2373     0.2052
   7315 H2         -7.8020   18.7150   15.9070 H     2384  TIP2373     0.2052
   7316 OH2       -14.0440   21.5690  -15.8060 O.3   2385  TIP2374    -0.4105
   7317 H1        -13.2930   21.8530  -15.2850 H     2385  TIP2374     0.2052
   7318 H2        -13.8830   20.6410  -15.9740 H     2385  TIP2374     0.2052
   7319 OH2        -0.5710   -2.2870   35.2430 O.3   2386  TIP2375    -0.4105
   7320 H1         -1.0460   -3.0980   35.0610 H     2386  TIP2375     0.2052
   7321 H2          0.1280   -2.2660   34.5900 H     2386  TIP2375     0.2052
   7322 OH2         5.1260   12.1340   -5.2210 O.3   2387  TIP2376    -0.4105
   7323 H1          6.0010   12.3310   -5.5550 H     2387  TIP2376     0.2052
   7324 H2          5.0340   11.1880   -5.3330 H     2387  TIP2376     0.2052
   7325 OH2        17.0400   18.8860   26.4550 O.3   2388  TIP2377    -0.4105
   7326 H1         16.7920   19.4450   27.1910 H     2388  TIP2377     0.2052
   7327 H2         16.2210   18.4740   26.1800 H     2388  TIP2377     0.2052
   7328 OH2        -5.6450  -19.0640   -2.2640 O.3   2389  TIP2378    -0.4105
   7329 H1         -6.2130  -19.6270   -2.7890 H     2389  TIP2378     0.2052
   7330 H2         -6.1160  -18.2320   -2.2090 H     2389  TIP2378     0.2052
   7331 OH2       -10.0000    8.9060  -11.6760 O.3   2390  TIP2379    -0.4105
   7332 H1         -9.3760    8.9250  -12.4020 H     2390  TIP2379     0.2052
   7333 H2         -9.4540    8.9070  -10.8900 H     2390  TIP2379     0.2052
   7334 OH2        -6.9730   -4.2340  -13.0540 O.3   2391  TIP2380    -0.4105
   7335 H1         -6.9390   -5.0250  -12.5160 H     2391  TIP2380     0.2052
   7336 H2         -7.3010   -4.5340  -13.9020 H     2391  TIP2380     0.2052
   7337 OH2        -0.6150  -14.2640    0.8090 O.3   2392  TIP2381    -0.4105
   7338 H1         -0.9130  -15.1390    1.0540 H     2392  TIP2381     0.2052
   7339 H2         -1.0860  -14.0680   -0.0010 H     2392  TIP2381     0.2052
   7340 OH2         1.8240   12.8640   -7.0220 O.3   2393  TIP2382    -0.4105
   7341 H1          1.9460   13.4770   -7.7470 H     2393  TIP2382     0.2052
   7342 H2          2.0700   13.3620   -6.2430 H     2393  TIP2382     0.2052
   7343 OH2         6.6630   12.8910  -14.4010 O.3   2394  TIP2383    -0.4105
   7344 H1          7.2640   12.3360  -13.9040 H     2394  TIP2383     0.2052
   7345 H2          6.4310   13.5960  -13.7950 H     2394  TIP2383     0.2052
   7346 OH2        23.0820   14.2640   -1.0020 O.3   2395  TIP2384    -0.4105
   7347 H1         22.8440   14.4440   -1.9110 H     2395  TIP2384     0.2052
   7348 H2         22.2450   14.2140   -0.5400 H     2395  TIP2384     0.2052
   7349 OH2       -16.1440  -18.2300  -26.0290 O.3   2396  TIP2385    -0.4105
   7350 H1        -15.9970  -17.3750  -25.6250 H     2396  TIP2385     0.2052
   7351 H2        -17.0090  -18.1580  -26.4330 H     2396  TIP2385     0.2052
   7352 OH2         2.2000    4.9940  -27.4760 O.3   2397  TIP2386    -0.4105
   7353 H1          2.3220    5.1270  -26.5360 H     2397  TIP2386     0.2052
   7354 H2          1.5280    5.6300  -27.7230 H     2397  TIP2386     0.2052
   7355 OH2         0.4250  -13.6200    5.6680 O.3   2398  TIP2387    -0.4105
   7356 H1         -0.4200  -14.0690    5.6500 H     2398  TIP2387     0.2052
   7357 H2          0.4920  -13.2010    4.8090 H     2398  TIP2387     0.2052
   7358 OH2       -10.3050   10.5810    7.9760 O.3   2399  TIP2388    -0.4105
   7359 H1        -10.1930    9.8520    7.3660 H     2399  TIP2388     0.2052
   7360 H2        -10.3550   10.1670    8.8380 H     2399  TIP2388     0.2052
   7361 OH2        16.6960  -11.8730  -13.5380 O.3   2400  TIP2389    -0.4105
   7362 H1         16.5570  -11.2660  -12.8110 H     2400  TIP2389     0.2052
   7363 H2         16.9840  -11.3180  -14.2620 H     2400  TIP2389     0.2052
   7364 OH2       -19.5290  -14.4160  -13.1400 O.3   2401  TIP2390    -0.4105
   7365 H1        -19.5160  -13.4760  -13.3160 H     2401  TIP2390     0.2052
   7366 H2        -20.3590  -14.5640  -12.6860 H     2401  TIP2390     0.2052
   7367 OH2       -26.4820   -5.8590    8.8250 O.3   2402  TIP2391    -0.4105
   7368 H1        -25.8670   -5.5260    9.4780 H     2402  TIP2391     0.2052
   7369 H2        -26.7630   -5.0820    8.3410 H     2402  TIP2391     0.2052
   7370 OH2        -4.1750  -11.6660   37.0570 O.3   2403  TIP2392    -0.4105
   7371 H1         -4.5250  -10.7830   36.9420 H     2403  TIP2392     0.2052
   7372 H2         -3.5510  -11.7720   36.3380 H     2403  TIP2392     0.2052
   7373 OH2        -0.0030    5.8940  -32.1060 O.3   2404  TIP2393    -0.4105
   7374 H1         -0.0090    6.7530  -31.6840 H     2404  TIP2393     0.2052
   7375 H2          0.9200    5.7280  -32.2990 H     2404  TIP2393     0.2052
   7376 OH2         1.6170   17.1070  -35.2770 O.3   2405  TIP2394    -0.4105
   7377 H1          1.8570   16.7440  -34.4250 H     2405  TIP2394     0.2052
   7378 H2          0.8760   17.6850  -35.0920 H     2405  TIP2394     0.2052
   7379 OH2       -10.6920   -4.2560  -23.1940 O.3   2406  TIP2395    -0.4105
   7380 H1        -10.7460   -3.6190  -23.9060 H     2406  TIP2395     0.2052
   7381 H2         -9.7600   -4.2950  -22.9770 H     2406  TIP2395     0.2052
   7382 OH2        -1.2500  -18.6310    2.4220 O.3   2407  TIP2396    -0.4105
   7383 H1         -1.0870  -19.4290    1.9180 H     2407  TIP2396     0.2052
   7384 H2         -0.3790  -18.2670    2.5820 H     2407  TIP2396     0.2052
   7385 OH2        -5.0950   -9.3560    5.2730 O.3   2408  TIP2397    -0.4105
   7386 H1         -4.4740   -8.6400    5.4100 H     2408  TIP2397     0.2052
   7387 H2         -4.9260   -9.6510    4.3790 H     2408  TIP2397     0.2052
   7388 OH2       -19.2380   -9.9190   -3.3990 O.3   2409  TIP2398    -0.4105
   7389 H1        -20.0170  -10.4150   -3.6510 H     2409  TIP2398     0.2052
   7390 H2        -19.4620   -9.5320   -2.5530 H     2409  TIP2398     0.2052
   7391 OH2        26.2090   12.0810   12.5860 O.3   2410  TIP2399    -0.4105
   7392 H1         25.3180   12.4310   12.5980 H     2410  TIP2399     0.2052
   7393 H2         26.3910   11.8560   13.4990 H     2410  TIP2399     0.2052
   7394 OH2         4.9460   19.1370   17.0220 O.3   2411  TIP2400    -0.4105
   7395 H1          4.1090   19.2050   16.5630 H     2411  TIP2400     0.2052
   7396 H2          5.5080   18.6440   16.4240 H     2411  TIP2400     0.2052
   7397 OH2        12.9830    5.1790   -9.1530 O.3   2412  TIP2401    -0.4105
   7398 H1         13.7110    5.1430   -8.5340 H     2412  TIP2401     0.2052
   7399 H2         12.9040    6.1060   -9.3770 H     2412  TIP2401     0.2052
   7400 OH2       -10.6500   22.2480  -18.2310 O.3   2413  TIP2402    -0.4105
   7401 H1        -11.3010   21.6220  -18.5470 H     2413  TIP2402     0.2052
   7402 H2         -9.8730   22.0750  -18.7630 H     2413  TIP2402     0.2052
   7403 OH2        -0.4420  -11.7250   37.5190 O.3   2414  TIP2403    -0.4105
   7404 H1         -1.0090  -11.1730   38.0570 H     2414  TIP2403     0.2052
   7405 H2          0.1970  -11.1190   37.1430 H     2414  TIP2403     0.2052
   7406 OH2       -10.1840  -16.4130    4.9890 O.3   2415  TIP2404    -0.4105
   7407 H1        -10.3630  -16.4290    4.0490 H     2415  TIP2404     0.2052
   7408 H2         -9.2640  -16.6670    5.0630 H     2415  TIP2404     0.2052
   7409 OH2        -2.8080    3.5110   27.1010 O.3   2416  TIP2405    -0.4105
   7410 H1         -2.1430    2.9290   26.7330 H     2416  TIP2405     0.2052
   7411 H2         -2.3280    4.3050   27.3380 H     2416  TIP2405     0.2052
   7412 OH2        11.0150   21.6610   30.6230 O.3   2417  TIP2406    -0.4105
   7413 H1         10.8090   21.4860   31.5410 H     2417  TIP2406     0.2052
   7414 H2         10.2060   21.4610   30.1530 H     2417  TIP2406     0.2052
   7415 OH2       -22.9200  -13.2550  -10.6320 O.3   2418  TIP2407    -0.4105
   7416 H1        -22.1940  -13.1450  -10.0170 H     2418  TIP2407     0.2052
   7417 H2        -23.3190  -12.3870  -10.6900 H     2418  TIP2407     0.2052
   7418 OH2        -5.4420  -10.9140   31.2980 O.3   2419  TIP2408    -0.4105
   7419 H1         -6.3640  -10.6630   31.3540 H     2419  TIP2408     0.2052
   7420 H2         -4.9960  -10.3300   31.9120 H     2419  TIP2408     0.2052
   7421 OH2       -12.2750   -4.1080   10.0140 O.3   2420  TIP2409    -0.4105
   7422 H1        -12.8500   -3.6860    9.3750 H     2420  TIP2409     0.2052
   7423 H2        -12.8020   -4.8190   10.3780 H     2420  TIP2409     0.2052
   7424 OH2       -20.3410  -13.5580    9.6130 O.3   2421  TIP2410    -0.4105
   7425 H1        -20.1130  -12.7690    9.1220 H     2421  TIP2410     0.2052
   7426 H2        -21.0470  -13.2810   10.1980 H     2421  TIP2410     0.2052
   7427 OH2       -21.4890  -16.5900   17.7480 O.3   2422  TIP2411    -0.4105
   7428 H1        -20.5490  -16.6960   17.8930 H     2422  TIP2411     0.2052
   7429 H2        -21.7200  -15.8010   18.2370 H     2422  TIP2411     0.2052
   7430 OH2        -9.2610   22.7540   11.0190 O.3   2423  TIP2412    -0.4105
   7431 H1         -8.8230   23.2510   10.3280 H     2423  TIP2412     0.2052
   7432 H2         -8.5790   22.6010   11.6730 H     2423  TIP2412     0.2052
   7433 OH2       -12.1830  -20.3680  -17.1330 O.3   2424  TIP2413    -0.4105
   7434 H1        -12.3850  -20.8670  -17.9240 H     2424  TIP2413     0.2052
   7435 H2        -12.8040  -19.6390  -17.1430 H     2424  TIP2413     0.2052
   7436 OH2        18.0580   10.1420    8.4230 O.3   2425  TIP2414    -0.4105
   7437 H1         18.3400   10.3200    7.5260 H     2425  TIP2414     0.2052
   7438 H2         17.2180   10.5930    8.5050 H     2425  TIP2414     0.2052
   7439 OH2        -7.5430   22.0330   12.9430 O.3   2426  TIP2415    -0.4105
   7440 H1         -7.3470   21.6690   12.0800 H     2426  TIP2415     0.2052
   7441 H2         -7.0770   21.4620   13.5550 H     2426  TIP2415     0.2052
   7442 OH2        29.2420    1.6180   -8.6660 O.3   2427  TIP2416    -0.4105
   7443 H1         29.7590    1.3970   -9.4410 H     2427  TIP2416     0.2052
   7444 H2         29.8370    2.1280   -8.1170 H     2427  TIP2416     0.2052
   7445 OH2         3.2520   -5.6580   -6.7240 O.3   2428  TIP2417    -0.4105
   7446 H1          4.0870   -5.7010   -7.1900 H     2428  TIP2417     0.2052
   7447 H2          2.8470   -6.5110   -6.8790 H     2428  TIP2417     0.2052
   7448 OH2       -18.3840    4.3820    4.6080 O.3   2429  TIP2418    -0.4105
   7449 H1        -18.2490    5.3260    4.6890 H     2429  TIP2418     0.2052
   7450 H2        -19.0680    4.1820    5.2470 H     2429  TIP2418     0.2052
   7451 OH2       -21.2810  -16.7880  -14.8320 O.3   2430  TIP2419    -0.4105
   7452 H1        -21.4810  -16.1360  -14.1610 H     2430  TIP2419     0.2052
   7453 H2        -22.1120  -17.2360  -14.9880 H     2430  TIP2419     0.2052
   7454 OH2        -1.9900  -27.5590   -6.1520 O.3   2431  TIP2420    -0.4105
   7455 H1         -2.0260  -27.5660   -7.1080 H     2431  TIP2420     0.2052
   7456 H2         -1.9590  -26.6310   -5.9200 H     2431  TIP2420     0.2052
   7457 OH2        11.5510  -11.2420    1.2530 O.3   2432  TIP2421    -0.4105
   7458 H1         11.3810  -11.0590    0.3290 H     2432  TIP2421     0.2052
   7459 H2         11.6250  -12.1950    1.2990 H     2432  TIP2421     0.2052
   7460 OH2        -5.2990  -26.2860  -14.7090 O.3   2433  TIP2422    -0.4105
   7461 H1         -5.7300  -27.1120  -14.9270 H     2433  TIP2422     0.2052
   7462 H2         -5.1580  -25.8580  -15.5530 H     2433  TIP2422     0.2052
   7463 OH2         6.9190    7.6470  -17.9660 O.3   2434  TIP2423    -0.4105
   7464 H1          7.6950    7.2080  -17.6160 H     2434  TIP2423     0.2052
   7465 H2          6.9850    8.5450  -17.6420 H     2434  TIP2423     0.2052
   7466 OH2        -1.0270  -25.2490    0.9790 O.3   2435  TIP2424    -0.4105
   7467 H1         -1.9420  -25.4570    1.1690 H     2435  TIP2424     0.2052
   7468 H2         -0.5350  -25.9970    1.3180 H     2435  TIP2424     0.2052
   7469 OH2       -21.9620   34.9430    3.0140 O.3   2436  TIP2425    -0.4105
   7470 H1        -22.5450   35.6260    2.6820 H     2436  TIP2425     0.2052
   7471 H2        -21.0870   35.3260    2.9580 H     2436  TIP2425     0.2052
   7472 OH2       -25.5490   -3.8450    0.2460 O.3   2437  TIP2426    -0.4105
   7473 H1        -26.0720   -3.4660   -0.4600 H     2437  TIP2426     0.2052
   7474 H2        -26.0880   -3.7360    1.0300 H     2437  TIP2426     0.2052
   7475 OH2        -4.9940    9.0290  -30.2550 O.3   2438  TIP2427    -0.4105
   7476 H1         -4.6340    9.8680  -30.5430 H     2438  TIP2427     0.2052
   7477 H2         -4.3090    8.6510  -29.7040 H     2438  TIP2427     0.2052
   7478 OH2       -10.4740    0.0870  -26.4230 O.3   2439  TIP2428    -0.4105
   7479 H1         -9.6160    0.0810  -26.8470 H     2439  TIP2428     0.2052
   7480 H2        -11.0990    0.1290  -27.1460 H     2439  TIP2428     0.2052
   7481 OH2        -9.4650   27.9210    2.4180 O.3   2440  TIP2429    -0.4105
   7482 H1         -9.7530   28.1410    3.3040 H     2440  TIP2429     0.2052
   7483 H2         -9.4060   28.7640    1.9690 H     2440  TIP2429     0.2052
   7484 OH2         6.0970   16.5210    1.6090 O.3   2441  TIP2430    -0.4105
   7485 H1          6.1730   16.2230    2.5150 H     2441  TIP2430     0.2052
   7486 H2          5.8520   15.7370    1.1180 H     2441  TIP2430     0.2052
   7487 OH2        12.2290   12.2960   -9.4090 O.3   2442  TIP2431    -0.4105
   7488 H1         11.6510   12.9190   -9.8510 H     2442  TIP2431     0.2052
   7489 H2         12.9590   12.8280   -9.0930 H     2442  TIP2431     0.2052
   7490 OH2        -7.0420  -21.0200  -12.9270 O.3   2443  TIP2432    -0.4105
   7491 H1         -6.7650  -21.5880  -12.2080 H     2443  TIP2432     0.2052
   7492 H2         -7.0150  -21.5820  -13.7010 H     2443  TIP2432     0.2052
   7493 OH2         1.6040   24.4680   -7.0930 O.3   2444  TIP2433    -0.4105
   7494 H1          1.5570   24.9680   -6.2780 H     2444  TIP2433     0.2052
   7495 H2          1.5920   25.1320   -7.7830 H     2444  TIP2433     0.2052
   7496 OH2       -22.2360  -11.2220   22.0480 O.3   2445  TIP2434    -0.4105
   7497 H1        -21.6360  -11.9000   22.3580 H     2445  TIP2434     0.2052
   7498 H2        -22.7970  -11.0350   22.8010 H     2445  TIP2434     0.2052
   7499 OH2        -8.2570  -11.4690   -5.4920 O.3   2446  TIP2435    -0.4105
   7500 H1         -7.4490  -11.5950   -5.9890 H     2446  TIP2435     0.2052
   7501 H2         -8.7540  -12.2750   -5.6330 H     2446  TIP2435     0.2052
   7502 OH2        26.1790  -14.1840   -0.3770 O.3   2447  TIP2436    -0.4105
   7503 H1         27.0460  -14.3680   -0.0160 H     2447  TIP2436     0.2052
   7504 H2         25.8370  -15.0410   -0.6300 H     2447  TIP2436     0.2052
   7505 OH2         4.9410   -4.1560    8.8110 O.3   2448  TIP2437    -0.4105
   7506 H1          4.0310   -4.4480    8.8580 H     2448  TIP2437     0.2052
   7507 H2          4.8960   -3.2090    8.9440 H     2448  TIP2437     0.2052
   7508 OH2        -6.3460   16.3910   -6.5550 O.3   2449  TIP2438    -0.4105
   7509 H1         -7.1190   16.1480   -6.0450 H     2449  TIP2438     0.2052
   7510 H2         -5.8220   16.9240   -5.9570 H     2449  TIP2438     0.2052
   7511 OH2         4.4240   17.4330   22.4910 O.3   2450  TIP2439    -0.4105
   7512 H1          4.2370   18.3650   22.3820 H     2450  TIP2439     0.2052
   7513 H2          5.3690   17.3940   22.6390 H     2450  TIP2439     0.2052
   7514 OH2         0.8660   -2.5480   18.1240 O.3   2451  TIP2440    -0.4105
   7515 H1          0.4450   -1.8990   17.5590 H     2451  TIP2440     0.2052
   7516 H2          0.2390   -3.2690   18.1700 H     2451  TIP2440     0.2052
   7517 OH2        22.1430  -16.8390    1.1910 O.3   2452  TIP2441    -0.4105
   7518 H1         22.6280  -17.6410    1.3830 H     2452  TIP2441     0.2052
   7519 H2         21.9190  -16.9100    0.2630 H     2452  TIP2441     0.2052
   7520 OH2         7.4280  -22.8830    8.2670 O.3   2453  TIP2442    -0.4105
   7521 H1          7.6080  -23.1310    9.1740 H     2453  TIP2442     0.2052
   7522 H2          6.4980  -22.6580    8.2600 H     2453  TIP2442     0.2052
   7523 OH2        19.3870  -10.9990   10.4640 O.3   2454  TIP2443    -0.4105
   7524 H1         18.6500  -11.3440    9.9610 H     2454  TIP2443     0.2052
   7525 H2         18.9930  -10.6700   11.2720 H     2454  TIP2443     0.2052
   7526 OH2         9.1690  -11.5950   27.2760 O.3   2455  TIP2444    -0.4105
   7527 H1          8.6100  -12.2490   26.8570 H     2455  TIP2444     0.2052
   7528 H2          8.6020  -10.8320   27.3900 H     2455  TIP2444     0.2052
   7529 OH2        -8.4670   -1.3550  -22.1670 O.3   2456  TIP2445    -0.4105
   7530 H1         -9.1910   -1.0180  -21.6390 H     2456  TIP2445     0.2052
   7531 H2         -8.4470   -0.7880  -22.9380 H     2456  TIP2445     0.2052
   7532 OH2        -6.6550  -13.5130   -9.6630 O.3   2457  TIP2446    -0.4105
   7533 H1         -5.8180  -13.5150  -10.1270 H     2457  TIP2446     0.2052
   7534 H2         -7.1080  -14.2940   -9.9820 H     2457  TIP2446     0.2052
   7535 OH2        20.0770    9.5420  -18.6520 O.3   2458  TIP2447    -0.4105
   7536 H1         20.9150    9.8890  -18.3470 H     2458  TIP2447     0.2052
   7537 H2         19.7920   10.1600  -19.3260 H     2458  TIP2447     0.2052
   7538 OH2       -16.5650    0.2650   19.5920 O.3   2459  TIP2448    -0.4105
   7539 H1        -15.7810   -0.0080   20.0680 H     2459  TIP2448     0.2052
   7540 H2        -16.3530    1.1380   19.2600 H     2459  TIP2448     0.2052
   7541 OH2         9.0230   17.2710    0.5420 O.3   2460  TIP2449    -0.4105
   7542 H1          8.3650   16.7340    0.9850 H     2460  TIP2449     0.2052
   7543 H2          8.6620   18.1570    0.5630 H     2460  TIP2449     0.2052
   7544 OH2        17.2370   18.0760   20.5310 O.3   2461  TIP2450    -0.4105
   7545 H1         17.2460   18.8330   21.1160 H     2461  TIP2450     0.2052
   7546 H2         16.3090   17.8720   20.4160 H     2461  TIP2450     0.2052
   7547 OH2        23.0520   -3.0470   -2.3510 O.3   2462  TIP2451    -0.4105
   7548 H1         23.5950   -2.5740   -1.7200 H     2462  TIP2451     0.2052
   7549 H2         23.0370   -3.9470   -2.0270 H     2462  TIP2451     0.2052
   7550 OH2        15.8110   -1.4230   13.3510 O.3   2463  TIP2452    -0.4105
   7551 H1         16.0090   -1.1430   14.2440 H     2463  TIP2452     0.2052
   7552 H2         16.2270   -0.7640   12.7950 H     2463  TIP2452     0.2052
   7553 OH2       -10.7560   -6.1340    8.9490 O.3   2464  TIP2453    -0.4105
   7554 H1         -9.8250   -6.0130    8.7600 H     2464  TIP2453     0.2052
   7555 H2        -11.0720   -5.2570    9.1670 H     2464  TIP2453     0.2052
   7556 OH2        13.9450   -4.7300  -16.4510 O.3   2465  TIP2454    -0.4105
   7557 H1         13.5700   -5.0010  -15.6130 H     2465  TIP2454     0.2052
   7558 H2         13.2690   -4.1840  -16.8520 H     2465  TIP2454     0.2052
   7559 OH2        -1.2950  -14.2970   12.0370 O.3   2466  TIP2455    -0.4105
   7560 H1         -1.9370  -14.9320   11.7170 H     2466  TIP2455     0.2052
   7561 H2         -1.8130  -13.6560   12.5230 H     2466  TIP2455     0.2052
   7562 OH2        13.6490    2.4260  -19.6920 O.3   2467  TIP2456    -0.4105
   7563 H1         13.4120    3.2750  -20.0640 H     2467  TIP2456     0.2052
   7564 H2         13.2930    2.4460  -18.8040 H     2467  TIP2456     0.2052
   7565 OH2         8.1480   -0.4460   27.7340 O.3   2468  TIP2457    -0.4105
   7566 H1          9.0750   -0.4010   27.4980 H     2468  TIP2457     0.2052
   7567 H2          8.1430   -0.8200   28.6150 H     2468  TIP2457     0.2052
   7568 OH2        17.9170  -13.3360    0.2890 O.3   2469  TIP2458    -0.4105
   7569 H1         17.2340  -13.2640    0.9560 H     2469  TIP2458     0.2052
   7570 H2         17.4940  -13.0470   -0.5200 H     2469  TIP2458     0.2052
   7571 OH2         3.8780    1.9360   30.8880 O.3   2470  TIP2459    -0.4105
   7572 H1          3.6650    1.0100   31.0030 H     2470  TIP2459     0.2052
   7573 H2          4.7220    1.9340   30.4360 H     2470  TIP2459     0.2052
   7574 OH2        -9.1860   29.8560   12.3410 O.3   2471  TIP2460    -0.4105
   7575 H1         -9.0580   29.5420   13.2360 H     2471  TIP2460     0.2052
   7576 H2         -8.4820   29.4450   11.8400 H     2471  TIP2460     0.2052
   7577 OH2         7.0300    1.0170  -14.4530 O.3   2472  TIP2461    -0.4105
   7578 H1          6.6790    0.9670  -15.3420 H     2472  TIP2461     0.2052
   7579 H2          6.4850    0.4160  -13.9450 H     2472  TIP2461     0.2052
   7580 OH2        -9.0680  -10.3830  -32.1090 O.3   2473  TIP2462    -0.4105
   7581 H1         -8.5380  -10.7980  -31.4280 H     2473  TIP2462     0.2052
   7582 H2         -8.7200  -10.7330  -32.9300 H     2473  TIP2462     0.2052
   7583 OH2         4.3770  -11.0390    8.4660 O.3   2474  TIP2463    -0.4105
   7584 H1          4.0620  -11.6150    9.1630 H     2474  TIP2463     0.2052
   7585 H2          3.9450  -11.3610    7.6750 H     2474  TIP2463     0.2052
   7586 OH2       -27.8170  -13.4380    2.8340 O.3   2475  TIP2464    -0.4105
   7587 H1        -26.9820  -13.5010    2.3710 H     2475  TIP2464     0.2052
   7588 H2        -27.7570  -12.6180    3.3250 H     2475  TIP2464     0.2052
   7589 OH2        16.8190   22.5270   20.5910 O.3   2476  TIP2465    -0.4105
   7590 H1         17.2870   23.3620   20.6060 H     2476  TIP2465     0.2052
   7591 H2         16.0890   22.6730   19.9890 H     2476  TIP2465     0.2052
   7592 OH2        -0.3920   -7.5360   13.7460 O.3   2477  TIP2466    -0.4105
   7593 H1          0.3990   -7.2280   13.3040 H     2477  TIP2466     0.2052
   7594 H2         -0.0700   -8.0420   14.4910 H     2477  TIP2466     0.2052
   7595 OH2       -16.3690   22.4450   -4.5900 O.3   2478  TIP2467    -0.4105
   7596 H1        -15.7980   21.6840   -4.6920 H     2478  TIP2467     0.2052
   7597 H2        -15.9890   23.1100   -5.1630 H     2478  TIP2467     0.2052
   7598 OH2        14.0390  -19.6660    5.9760 O.3   2479  TIP2468    -0.4105
   7599 H1         14.5890  -19.0030    6.3950 H     2479  TIP2468     0.2052
   7600 H2         14.6330  -20.1350    5.3900 H     2479  TIP2468     0.2052
   7601 OH2        -7.9600   13.9830   15.8370 O.3   2480  TIP2469    -0.4105
   7602 H1         -7.6210   14.0500   16.7300 H     2480  TIP2469     0.2052
   7603 H2         -8.2550   13.0760   15.7590 H     2480  TIP2469     0.2052
   7604 OH2         9.3010   -7.4470   -7.6410 O.3   2481  TIP2470    -0.4105
   7605 H1          8.7970   -7.4980   -8.4540 H     2481  TIP2470     0.2052
   7606 H2          9.8070   -6.6390   -7.7230 H     2481  TIP2470     0.2052
   7607 OH2       -11.9060    0.6680    3.4510 O.3   2482  TIP2471    -0.4105
   7608 H1        -11.6580    0.5490    2.5350 H     2482  TIP2471     0.2052
   7609 H2        -12.8310    0.4220    3.4830 H     2482  TIP2471     0.2052
   7610 OH2       -11.8380  -18.6250   25.9420 O.3   2483  TIP2472    -0.4105
   7611 H1        -11.1390  -19.1690   26.3040 H     2483  TIP2472     0.2052
   7612 H2        -12.1330  -19.1000   25.1640 H     2483  TIP2472     0.2052
   7613 OH2       -20.5430   -3.7740  -13.9520 O.3   2484  TIP2473    -0.4105
   7614 H1        -20.3950   -2.9750  -13.4470 H     2484  TIP2473     0.2052
   7615 H2        -19.9300   -4.4090  -13.5810 H     2484  TIP2473     0.2052
   7616 OH2        23.4650    0.6400   -7.7400 O.3   2485  TIP2474    -0.4105
   7617 H1         23.0530    1.2790   -7.1580 H     2485  TIP2474     0.2052
   7618 H2         22.7340    0.2300   -8.2020 H     2485  TIP2474     0.2052
   7619 OH2        14.0970   14.4260   -9.1210 O.3   2486  TIP2475    -0.4105
   7620 H1         13.4370   15.1100   -9.2280 H     2486  TIP2475     0.2052
   7621 H2         14.9240   14.8530   -9.3470 H     2486  TIP2475     0.2052
   7622 OH2         4.7890  -14.7860  -20.5470 O.3   2487  TIP2476    -0.4105
   7623 H1          4.7420  -14.2020  -19.7900 H     2487  TIP2476     0.2052
   7624 H2          5.2120  -15.5780  -20.2130 H     2487  TIP2476     0.2052
   7625 OH2        29.2330  -14.9110    0.1460 O.3   2488  TIP2477    -0.4105
   7626 H1         28.9130  -14.7580    1.0360 H     2488  TIP2477     0.2052
   7627 H2         30.0750  -15.3490    0.2670 H     2488  TIP2477     0.2052
   7628 OH2        -0.3150   -6.8440  -14.5030 O.3   2489  TIP2478    -0.4105
   7629 H1         -0.3410   -6.4560  -15.3780 H     2489  TIP2478     0.2052
   7630 H2         -1.1780   -7.2420  -14.3910 H     2489  TIP2478     0.2052
   7631 OH2       -23.4720   -6.4070   10.0010 O.3   2490  TIP2479    -0.4105
   7632 H1        -23.8960   -5.5490   10.0190 H     2490  TIP2479     0.2052
   7633 H2        -23.0100   -6.4300    9.1630 H     2490  TIP2479     0.2052
   7634 OH2         5.4910  -24.1330   26.2880 O.3   2491  TIP2480    -0.4105
   7635 H1          5.9920  -23.9620   25.4900 H     2491  TIP2480     0.2052
   7636 H2          5.7670  -23.4460   26.8960 H     2491  TIP2480     0.2052
   7637 OH2       -32.7660   -3.1620   13.3040 O.3   2492  TIP2481    -0.4105
   7638 H1        -32.4870   -2.8640   14.1700 H     2492  TIP2481     0.2052
   7639 H2        -33.1450   -4.0280   13.4590 H     2492  TIP2481     0.2052
   7640 OH2        -7.1290   17.0250  -10.7050 O.3   2493  TIP2482    -0.4105
   7641 H1         -6.2380   16.8250  -10.4180 H     2493  TIP2482     0.2052
   7642 H2         -7.0460   17.1980  -11.6420 H     2493  TIP2482     0.2052
   7643 OH2       -11.2360   -9.2430   16.2610 O.3   2494  TIP2483    -0.4105
   7644 H1        -11.0060   -8.7890   15.4500 H     2494  TIP2483     0.2052
   7645 H2        -11.6220  -10.0700   15.9730 H     2494  TIP2483     0.2052
   7646 OH2        -0.2530    4.6500   16.5570 O.3   2495  TIP2484    -0.4105
   7647 H1         -0.1880    4.5470   15.6070 H     2495  TIP2484     0.2052
   7648 H2         -0.6420    5.5160   16.6790 H     2495  TIP2484     0.2052
   7649 OH2       -21.7900   -8.7230    8.7820 O.3   2496  TIP2485    -0.4105
   7650 H1        -21.9240   -8.2890    9.6240 H     2496  TIP2485     0.2052
   7651 H2        -21.3200   -8.0800    8.2520 H     2496  TIP2485     0.2052
   7652 OH2         0.1830  -16.8580   19.6150 O.3   2497  TIP2486    -0.4105
   7653 H1          0.6930  -17.3040   18.9390 H     2497  TIP2486     0.2052
   7654 H2         -0.4460  -17.5150   19.9140 H     2497  TIP2486     0.2052
   7655 OH2        -3.5760  -19.1180  -18.6450 O.3   2498  TIP2487    -0.4105
   7656 H1         -3.2060  -20.0000  -18.6300 H     2498  TIP2487     0.2052
   7657 H2         -3.4790  -18.8010  -17.7470 H     2498  TIP2487     0.2052
   7658 OH2        -2.1420   -9.6270   -8.1230 O.3   2499  TIP2488    -0.4105
   7659 H1         -1.5520  -10.3580   -7.9370 H     2499  TIP2488     0.2052
   7660 H2         -2.2750   -9.2050   -7.2740 H     2499  TIP2488     0.2052
   7661 OH2       -11.4910   22.0160  -14.1730 O.3   2500  TIP2489    -0.4105
   7662 H1        -11.1290   22.2540  -13.3190 H     2500  TIP2489     0.2052
   7663 H2        -11.3310   21.0750  -14.2480 H     2500  TIP2489     0.2052
   7664 OH2        -8.9960   11.3910  -21.8650 O.3   2501  TIP2490    -0.4105
   7665 H1         -8.0890   11.2340  -22.1270 H     2501  TIP2490     0.2052
   7666 H2         -9.0530   11.0410  -20.9760 H     2501  TIP2490     0.2052
   7667 OH2        27.7410    7.4330    1.1220 O.3   2502  TIP2491    -0.4105
   7668 H1         28.1920    7.8740    0.4020 H     2502  TIP2491     0.2052
   7669 H2         27.6490    6.5270    0.8280 H     2502  TIP2491     0.2052
   7670 OH2        10.4840  -12.0470    7.5670 O.3   2503  TIP2492    -0.4105
   7671 H1         10.2070  -11.5880    8.3600 H     2503  TIP2492     0.2052
   7672 H2         11.3390  -12.4160    7.7880 H     2503  TIP2492     0.2052
   7673 OH2        -7.3400    2.1460   27.0040 O.3   2504  TIP2493    -0.4105
   7674 H1         -6.8640    2.4480   27.7780 H     2504  TIP2493     0.2052
   7675 H2         -7.9100    2.8790   26.7720 H     2504  TIP2493     0.2052
   7676 OH2        11.9570   26.3390   27.0290 O.3   2505  TIP2494    -0.4105
   7677 H1         12.4790   25.6170   26.6780 H     2505  TIP2494     0.2052
   7678 H2         11.7130   26.8550   26.2610 H     2505  TIP2494     0.2052
   7679 OH2       -16.8280   -0.9000  -10.8960 O.3   2506  TIP2495    -0.4105
   7680 H1        -16.6660   -1.4570  -11.6570 H     2506  TIP2495     0.2052
   7681 H2        -15.9600   -0.7420  -10.5250 H     2506  TIP2495     0.2052
   7682 OH2       -32.3150   -6.1460    4.0680 O.3   2507  TIP2496    -0.4105
   7683 H1        -33.0500   -5.5330    4.0410 H     2507  TIP2496     0.2052
   7684 H2        -32.5950   -6.8790    3.5200 H     2507  TIP2496     0.2052
   7685 OH2        -5.7730   -4.9800  -26.7790 O.3   2508  TIP2497    -0.4105
   7686 H1         -6.7250   -5.0420  -26.7020 H     2508  TIP2497     0.2052
   7687 H2         -5.6270   -4.5820  -27.6370 H     2508  TIP2497     0.2052
   7688 OH2        29.3870    6.8650    6.0390 O.3   2509  TIP2498    -0.4105
   7689 H1         29.6520    7.1120    5.1530 H     2509  TIP2498     0.2052
   7690 H2         28.7410    7.5260    6.2890 H     2509  TIP2498     0.2052
   7691 OH2         1.6350   20.9940  -20.1880 O.3   2510  TIP2499    -0.4105
   7692 H1          1.9760   20.1120  -20.0370 H     2510  TIP2499     0.2052
   7693 H2          2.3750   21.5720  -20.0040 H     2510  TIP2499     0.2052
   7694 OH2        -3.9610   -5.5650  -17.1210 O.3   2511  TIP2500    -0.4105
   7695 H1         -3.2160   -5.0860  -17.4810 H     2511  TIP2500     0.2052
   7696 H2         -4.6680   -4.9200  -17.0860 H     2511  TIP2500     0.2052
   7697 OH2        15.2860  -32.9900    9.6820 O.3   2512  TIP2501    -0.4105
   7698 H1         14.5060  -32.8040    9.1590 H     2512  TIP2501     0.2052
   7699 H2         15.0040  -33.6620   10.3020 H     2512  TIP2501     0.2052
   7700 OH2        -6.2330  -21.6100   -6.8120 O.3   2513  TIP2502    -0.4105
   7701 H1         -5.3650  -21.5270   -6.4180 H     2513  TIP2502     0.2052
   7702 H2         -6.2870  -20.8790   -7.4270 H     2513  TIP2502     0.2052
   7703 OH2        13.3670   13.7130    0.0600 O.3   2514  TIP2503    -0.4105
   7704 H1         13.1080   12.8930    0.4820 H     2514  TIP2503     0.2052
   7705 H2         12.5920   14.2710    0.1250 H     2514  TIP2503     0.2052
   7706 OH2        -7.6520  -26.2840  -16.8280 O.3   2515  TIP2504    -0.4105
   7707 H1         -7.4930  -25.3420  -16.7650 H     2515  TIP2504     0.2052
   7708 H2         -6.9190  -26.6160  -17.3460 H     2515  TIP2504     0.2052
   7709 OH2         3.5620   -4.5250   22.7620 O.3   2516  TIP2505    -0.4105
   7710 H1          3.8440   -4.3170   23.6520 H     2516  TIP2505     0.2052
   7711 H2          3.6120   -3.6920   22.2930 H     2516  TIP2505     0.2052
   7712 OH2       -26.1860   -3.0920    7.2450 O.3   2517  TIP2506    -0.4105
   7713 H1        -25.4060   -2.5380    7.2200 H     2517  TIP2506     0.2052
   7714 H2        -26.2890   -3.4040    6.3460 H     2517  TIP2506     0.2052
   7715 OH2        -2.3010   -1.9400  -12.4990 O.3   2518  TIP2507    -0.4105
   7716 H1         -1.4660   -2.3230  -12.7660 H     2518  TIP2507     0.2052
   7717 H2         -2.6520   -2.5550  -11.8550 H     2518  TIP2507     0.2052
   7718 OH2        20.7030  -24.6790   -1.3070 O.3   2519  TIP2508    -0.4105
   7719 H1         19.8240  -24.6890   -0.9290 H     2519  TIP2508     0.2052
   7720 H2         20.8790  -25.5940   -1.5310 H     2519  TIP2508     0.2052
   7721 OH2       -19.3280    9.4990    9.4530 O.3   2520  TIP2509    -0.4105
   7722 H1        -20.0040   10.0230    9.8830 H     2520  TIP2509     0.2052
   7723 H2        -19.7490    9.1700    8.6590 H     2520  TIP2509     0.2052
   7724 OH2       -21.4010    5.4950    2.8630 O.3   2521  TIP2510    -0.4105
   7725 H1        -22.1840    5.1470    3.2890 H     2521  TIP2510     0.2052
   7726 H2        -21.0690    6.1550    3.4720 H     2521  TIP2510     0.2052
   7727 OH2         8.1340   25.3880   25.9890 O.3   2522  TIP2511    -0.4105
   7728 H1          7.9650   25.2990   26.9270 H     2522  TIP2511     0.2052
   7729 H2          8.4270   24.5190   25.7150 H     2522  TIP2511     0.2052
   7730 OH2        -5.0780   -4.2110  -23.4180 O.3   2523  TIP2512    -0.4105
   7731 H1         -4.2660   -4.5340  -23.0280 H     2523  TIP2512     0.2052
   7732 H2         -4.7940   -3.5530  -24.0530 H     2523  TIP2512     0.2052
   7733 OH2        -5.3510    6.0150  -14.7860 O.3   2524  TIP2513    -0.4105
   7734 H1         -4.9880    6.8810  -14.5980 H     2524  TIP2513     0.2052
   7735 H2         -5.6080    6.0570  -15.7070 H     2524  TIP2513     0.2052
   7736 OH2        13.2470   12.0540   29.2550 O.3   2525  TIP2514    -0.4105
   7737 H1         13.4230   12.2250   28.3300 H     2525  TIP2514     0.2052
   7738 H2         13.8470   12.6340   29.7250 H     2525  TIP2514     0.2052
   7739 OH2        -9.4490   -2.5670   -3.5920 O.3   2526  TIP2515    -0.4105
   7740 H1         -9.7420   -2.8800   -4.4480 H     2526  TIP2515     0.2052
   7741 H2         -9.7210   -1.6490   -3.5660 H     2526  TIP2515     0.2052
   7742 OH2        -0.4680  -21.3880   -3.0120 O.3   2527  TIP2516    -0.4105
   7743 H1         -0.3490  -20.7390   -3.7050 H     2527  TIP2516     0.2052
   7744 H2         -1.1950  -21.0510   -2.4900 H     2527  TIP2516     0.2052
   7745 OH2        21.6100   -2.4560   -8.6790 O.3   2528  TIP2517    -0.4105
   7746 H1         21.8990   -2.9780   -9.4270 H     2528  TIP2517     0.2052
   7747 H2         20.8990   -2.9660   -8.2910 H     2528  TIP2517     0.2052
   7748 OH2       -25.0420  -16.9410   -2.2650 O.3   2529  TIP2518    -0.4105
   7749 H1        -24.3620  -17.3910   -1.7650 H     2529  TIP2518     0.2052
   7750 H2        -25.1180  -17.4440   -3.0760 H     2529  TIP2518     0.2052
   7751 OH2        19.2040   10.1690   13.6070 O.3   2530  TIP2519    -0.4105
   7752 H1         20.0440    9.8360   13.9220 H     2530  TIP2519     0.2052
   7753 H2         19.3690   10.4130   12.6970 H     2530  TIP2519     0.2052
   7754 OH2        -6.1680   -2.6250   13.0600 O.3   2531  TIP2520    -0.4105
   7755 H1         -5.7110   -1.8130   12.8380 H     2531  TIP2520     0.2052
   7756 H2         -5.8090   -3.2760   12.4570 H     2531  TIP2520     0.2052
   7757 OH2         2.5060   15.2100   -8.2770 O.3   2532  TIP2521    -0.4105
   7758 H1          1.9800   15.7170   -8.8940 H     2532  TIP2521     0.2052
   7759 H2          2.4640   15.7060   -7.4600 H     2532  TIP2521     0.2052
   7760 OH2        -1.1920    9.6330  -28.4620 O.3   2533  TIP2522    -0.4105
   7761 H1         -2.0640    9.4210  -28.1270 H     2533  TIP2522     0.2052
   7762 H2         -0.7930   10.1640  -27.7720 H     2533  TIP2522     0.2052
   7763 OH2        29.1980    8.4530   -1.0430 O.3   2534  TIP2523    -0.4105
   7764 H1         29.9110    9.0400   -0.7920 H     2534  TIP2523     0.2052
   7765 H2         28.6310    8.9890   -1.5990 H     2534  TIP2523     0.2052
   7766 OH2         4.5410   -4.9140  -14.3310 O.3   2535  TIP2524    -0.4105
   7767 H1          3.6460   -4.5830  -14.4050 H     2535  TIP2524     0.2052
   7768 H2          4.4370   -5.8310  -14.0770 H     2535  TIP2524     0.2052
   7769 OH2       -11.8040   18.2160   -2.7910 O.3   2536  TIP2525    -0.4105
   7770 H1        -11.0470   17.6320   -2.7490 H     2536  TIP2525     0.2052
   7771 H2        -12.3870   17.9030   -2.1000 H     2536  TIP2525     0.2052
   7772 OH2        -7.9390   -5.0260    8.4970 O.3   2537  TIP2526    -0.4105
   7773 H1         -7.1650   -5.0350    7.9340 H     2537  TIP2526     0.2052
   7774 H2         -7.5870   -4.9960    9.3870 H     2537  TIP2526     0.2052
   7775 OH2         4.8320   22.1760   10.3580 O.3   2538  TIP2527    -0.4105
   7776 H1          5.4040   22.9280   10.2050 H     2538  TIP2527     0.2052
   7777 H2          4.4530   21.9830    9.5000 H     2538  TIP2527     0.2052
   7778 OH2       -13.9600   26.4600   -3.1280 O.3   2539  TIP2528    -0.4105
   7779 H1        -13.4490   27.2370   -3.3540 H     2539  TIP2528     0.2052
   7780 H2        -13.3150   25.8390   -2.7900 H     2539  TIP2528     0.2052
   7781 OH2       -37.5110   -0.8990    5.2860 O.3   2540  TIP2529    -0.4105
   7782 H1        -36.5980   -0.7070    5.4980 H     2540  TIP2529     0.2052
   7783 H2        -37.7850   -0.1750    4.7230 H     2540  TIP2529     0.2052
   7784 OH2        10.3590   -3.9760   23.0950 O.3   2541  TIP2530    -0.4105
   7785 H1         10.0050   -3.4180   23.7870 H     2541  TIP2530     0.2052
   7786 H2          9.6320   -4.0890   22.4830 H     2541  TIP2530     0.2052
   7787 OH2        15.5480   19.6760    6.7450 O.3   2542  TIP2531    -0.4105
   7788 H1         16.4180   19.6880    7.1450 H     2542  TIP2531     0.2052
   7789 H2         15.2090   18.8010    6.9310 H     2542  TIP2531     0.2052
   7790 OH2        23.5800   14.5980  -12.5730 O.3   2543  TIP2532    -0.4105
   7791 H1         22.8920   14.3610  -11.9520 H     2543  TIP2532     0.2052
   7792 H2         24.3450   14.7770  -12.0260 H     2543  TIP2532     0.2052
   7793 OH2        11.6050  -27.3770  -10.8300 O.3   2544  TIP2533    -0.4105
   7794 H1         11.9380  -27.1730   -9.9560 H     2544  TIP2533     0.2052
   7795 H2         11.6470  -28.3320  -10.8860 H     2544  TIP2533     0.2052
   7796 OH2       -13.4010    7.2950  -21.7360 O.3   2545  TIP2534    -0.4105
   7797 H1        -14.1690    7.3780  -21.1710 H     2545  TIP2534     0.2052
   7798 H2        -13.6800    7.6610  -22.5750 H     2545  TIP2534     0.2052
   7799 OH2         9.5250   11.2950    5.7850 O.3   2546  TIP2535    -0.4105
   7800 H1         10.3880   10.8920    5.8750 H     2546  TIP2535     0.2052
   7801 H2          8.9670   10.8050    6.3890 H     2546  TIP2535     0.2052
   7802 OH2       -23.8790   -8.6870   -1.0720 O.3   2547  TIP2536    -0.4105
   7803 H1        -23.4250   -8.6810   -1.9150 H     2547  TIP2536     0.2052
   7804 H2        -24.5650   -8.0250   -1.1640 H     2547  TIP2536     0.2052
   7805 OH2         6.4240   28.9670   21.7150 O.3   2548  TIP2537    -0.4105
   7806 H1          6.6600   28.0420   21.6340 H     2548  TIP2537     0.2052
   7807 H2          7.2510   29.4360   21.6040 H     2548  TIP2537     0.2052
   7808 OH2       -20.2870    2.6680   -1.1150 O.3   2549  TIP2538    -0.4105
   7809 H1        -20.6960    3.0200   -0.3240 H     2549  TIP2538     0.2052
   7810 H2        -20.8180    3.0130   -1.8330 H     2549  TIP2538     0.2052
   7811 OH2        -1.6490  -12.9660  -24.3520 O.3   2550  TIP2539    -0.4105
   7812 H1         -2.0310  -12.9400  -25.2300 H     2550  TIP2539     0.2052
   7813 H2         -2.3790  -12.7630  -23.7670 H     2550  TIP2539     0.2052
   7814 OH2       -15.4220   -3.7020  -22.5440 O.3   2551  TIP2540    -0.4105
   7815 H1        -15.7290   -4.0420  -23.3840 H     2551  TIP2540     0.2052
   7816 H2        -14.8130   -4.3680  -22.2240 H     2551  TIP2540     0.2052
   7817 OH2         5.1280    0.3510   36.1050 O.3   2552  TIP2541    -0.4105
   7818 H1          5.1240   -0.5950   35.9610 H     2552  TIP2541     0.2052
   7819 H2          4.6970    0.7130   35.3310 H     2552  TIP2541     0.2052
   7820 OH2         9.5770   -4.0820  -20.9120 O.3   2553  TIP2542    -0.4105
   7821 H1          8.9420   -4.7280  -21.2200 H     2553  TIP2542     0.2052
   7822 H2         10.3530   -4.5970  -20.6860 H     2553  TIP2542     0.2052
   7823 OH2         8.5920   11.7000  -19.8000 O.3   2554  TIP2543    -0.4105
   7824 H1          7.9410   12.3480  -20.0700 H     2554  TIP2543     0.2052
   7825 H2          9.1890   12.1840  -19.2300 H     2554  TIP2543     0.2052
   7826 OH2         0.0290  -23.2090  -19.5290 O.3   2555  TIP2544    -0.4105
   7827 H1          0.9500  -23.3510  -19.7440 H     2555  TIP2544     0.2052
   7828 H2         -0.4390  -23.8860  -20.0180 H     2555  TIP2544     0.2052
   7829 OH2       -12.2160  -10.4200  -13.4800 O.3   2556  TIP2545    -0.4105
   7830 H1        -12.5160   -9.8690  -12.7570 H     2556  TIP2545     0.2052
   7831 H2        -12.3370  -11.3160  -13.1650 H     2556  TIP2545     0.2052
   7832 OH2       -23.9800   -5.3620   20.2180 O.3   2557  TIP2546    -0.4105
   7833 H1        -23.5220   -4.8000   20.8440 H     2557  TIP2546     0.2052
   7834 H2        -23.3820   -6.0950   20.0710 H     2557  TIP2546     0.2052
   7835 OH2        18.1160   -3.1140   -4.1830 O.3   2558  TIP2547    -0.4105
   7836 H1         18.8330   -3.7180   -3.9920 H     2558  TIP2547     0.2052
   7837 H2         17.5560   -3.1520   -3.4070 H     2558  TIP2547     0.2052
   7838 OH2         4.0130   -9.8450  -13.0020 O.3   2559  TIP2548    -0.4105
   7839 H1          3.0600   -9.7570  -12.9810 H     2559  TIP2548     0.2052
   7840 H2          4.3380   -8.9450  -12.9570 H     2559  TIP2548     0.2052
   7841 OH2       -23.0560  -11.9930   11.3610 O.3   2560  TIP2549    -0.4105
   7842 H1        -23.0820  -11.2730   11.9910 H     2560  TIP2549     0.2052
   7843 H2        -23.2620  -12.7720   11.8770 H     2560  TIP2549     0.2052
   7844 OH2        -1.3010   10.4400  -35.7270 O.3   2561  TIP2550    -0.4105
   7845 H1         -0.4930   10.3790  -35.2160 H     2561  TIP2550     0.2052
   7846 H2         -1.7640   11.1890  -35.3530 H     2561  TIP2550     0.2052
   7847 OH2         4.3220    3.8660   17.5640 O.3   2562  TIP2551    -0.4105
   7848 H1          4.5550    3.3270   18.3190 H     2562  TIP2551     0.2052
   7849 H2          4.4320    3.2850   16.8110 H     2562  TIP2551     0.2052
   7850 OH2       -24.0240    7.3420   12.2420 O.3   2563  TIP2552    -0.4105
   7851 H1        -23.3940    6.6830   12.5330 H     2563  TIP2552     0.2052
   7852 H2        -24.2620    7.0730   11.3550 H     2563  TIP2552     0.2052
   7853 OH2       -10.9870  -24.4500   -1.3120 O.3   2564  TIP2553    -0.4105
   7854 H1        -11.9300  -24.4070   -1.1530 H     2564  TIP2553     0.2052
   7855 H2        -10.7870  -25.3860   -1.3150 H     2564  TIP2553     0.2052
   7856 OH2        -4.0000  -12.9280   -2.8140 O.3   2565  TIP2554    -0.4105
   7857 H1         -4.3690  -13.6220   -2.2680 H     2565  TIP2554     0.2052
   7858 H2         -3.3450  -13.3700   -3.3540 H     2565  TIP2554     0.2052
   7859 OH2        -5.5230   20.1930   14.5570 O.3   2566  TIP2555    -0.4105
   7860 H1         -5.7100   19.8720   13.6750 H     2566  TIP2555     0.2052
   7861 H2         -4.6730   19.8110   14.7760 H     2566  TIP2555     0.2052
   7862 OH2        10.8180   -0.1970   26.4320 O.3   2567  TIP2556    -0.4105
   7863 H1         11.6120   -0.2650   26.9620 H     2567  TIP2556     0.2052
   7864 H2         10.8350    0.6960   26.0880 H     2567  TIP2556     0.2052
   7865 OH2        11.3690   -6.5780   -2.2250 O.3   2568  TIP2557    -0.4105
   7866 H1         10.6520   -5.9660   -2.3890 H     2568  TIP2557     0.2052
   7867 H2         11.8790   -6.1700   -1.5260 H     2568  TIP2557     0.2052
   7868 OH2        -0.7450    3.9510  -18.6680 O.3   2569  TIP2558    -0.4105
   7869 H1         -0.7510    4.2180  -19.5870 H     2569  TIP2558     0.2052
   7870 H2         -1.3710    4.5380  -18.2440 H     2569  TIP2558     0.2052
   7871 OH2        31.2670   11.3370   -2.0730 O.3   2570  TIP2559    -0.4105
   7872 H1         31.8270   11.6080   -2.8000 H     2570  TIP2559     0.2052
   7873 H2         30.5080   11.9180   -2.1250 H     2570  TIP2559     0.2052
   7874 OH2       -35.8530   -9.7810   13.2350 O.3   2571  TIP2560    -0.4105
   7875 H1        -36.2300   -8.9180   13.4070 H     2571  TIP2560     0.2052
   7876 H2        -36.4430  -10.1780   12.5940 H     2571  TIP2560     0.2052
   7877 OH2         2.1050   17.4310    2.9690 O.3   2572  TIP2561    -0.4105
   7878 H1          2.8660   17.6300    2.4220 H     2572  TIP2561     0.2052
   7879 H2          2.4560   16.8980    3.6820 H     2572  TIP2561     0.2052
   7880 OH2       -22.3660    5.9050   -3.7950 O.3   2573  TIP2562    -0.4105
   7881 H1        -21.9180    6.5410   -4.3530 H     2573  TIP2562     0.2052
   7882 H2        -22.2870    5.0750   -4.2660 H     2573  TIP2562     0.2052
   7883 OH2        14.9570   26.4260   31.1320 O.3   2574  TIP2563    -0.4105
   7884 H1         15.8060   26.1090   30.8230 H     2574  TIP2563     0.2052
   7885 H2         14.6050   26.9260   30.3960 H     2574  TIP2563     0.2052
   7886 OH2       -29.5070   -6.7780   15.7730 O.3   2575  TIP2564    -0.4105
   7887 H1        -29.7980   -7.0070   14.8910 H     2575  TIP2564     0.2052
   7888 H2        -30.1590   -7.1750   16.3510 H     2575  TIP2564     0.2052
   7889 OH2         1.1300   -1.1250  -21.3680 O.3   2576  TIP2565    -0.4105
   7890 H1          2.0440   -1.3610  -21.5250 H     2576  TIP2565     0.2052
   7891 H2          0.6340   -1.6590  -21.9890 H     2576  TIP2565     0.2052
   7892 OH2        -7.2360   -7.4220   16.5680 O.3   2577  TIP2566    -0.4105
   7893 H1         -7.0540   -6.4970   16.7310 H     2577  TIP2566     0.2052
   7894 H2         -6.4310   -7.8740   16.8210 H     2577  TIP2566     0.2052
   7895 OH2        -9.1590   21.7800    3.7050 O.3   2578  TIP2567    -0.4105
   7896 H1         -9.1750   22.0900    4.6100 H     2578  TIP2567     0.2052
   7897 H2         -8.2290   21.6830    3.5000 H     2578  TIP2567     0.2052
   7898 OH2        -1.9480  -19.5110   14.8760 O.3   2579  TIP2568    -0.4105
   7899 H1         -2.5980  -18.8370   15.0740 H     2579  TIP2568     0.2052
   7900 H2         -1.9760  -19.5990   13.9240 H     2579  TIP2568     0.2052
   7901 OH2        -9.4610    8.2620   -4.6010 O.3   2580  TIP2569    -0.4105
   7902 H1         -9.6950    7.3590   -4.8170 H     2580  TIP2569     0.2052
   7903 H2        -10.2110    8.5930   -4.1060 H     2580  TIP2569     0.2052
   7904 OH2        17.8440  -26.5230   -6.8850 O.3   2581  TIP2570    -0.4105
   7905 H1         17.0190  -26.1280   -7.1670 H     2581  TIP2570     0.2052
   7906 H2         17.5880  -27.1700   -6.2270 H     2581  TIP2570     0.2052
   7907 OH2        -2.0050   27.4410    0.4710 O.3   2582  TIP2571    -0.4105
   7908 H1         -2.1200   26.5290    0.7390 H     2582  TIP2571     0.2052
   7909 H2         -1.0970   27.6440    0.6960 H     2582  TIP2571     0.2052
   7910 OH2        13.3760   20.9400    1.6770 O.3   2583  TIP2572    -0.4105
   7911 H1         13.7050   21.8180    1.4860 H     2583  TIP2572     0.2052
   7912 H2         13.7240   20.7370    2.5450 H     2583  TIP2572     0.2052
   7913 OH2        -8.3350  -14.8700  -26.9140 O.3   2584  TIP2573    -0.4105
   7914 H1         -8.9320  -14.2450  -27.3240 H     2584  TIP2573     0.2052
   7915 H2         -8.8550  -15.2830  -26.2240 H     2584  TIP2573     0.2052
   7916 OH2        27.4480   13.4420   10.6250 O.3   2585  TIP2574    -0.4105
   7917 H1         27.1220   12.8950   11.3400 H     2585  TIP2574     0.2052
   7918 H2         26.7890   13.3540    9.9370 H     2585  TIP2574     0.2052
   7919 OH2        -9.2900    2.4300   11.9900 O.3   2586  TIP2575    -0.4105
   7920 H1         -9.6380    2.0490   12.7960 H     2586  TIP2575     0.2052
   7921 H2         -8.9860    1.6790   11.4810 H     2586  TIP2575     0.2052
   7922 OH2        16.9790  -12.2650    6.6660 O.3   2587  TIP2576    -0.4105
   7923 H1         16.2180  -11.8300    6.2820 H     2587  TIP2576     0.2052
   7924 H2         17.1820  -12.9760    6.0570 H     2587  TIP2576     0.2052
   7925 OH2        12.5600    7.9890    1.1920 O.3   2588  TIP2577    -0.4105
   7926 H1         11.7860    7.6930    0.7130 H     2588  TIP2577     0.2052
   7927 H2         13.2880    7.8350    0.5890 H     2588  TIP2577     0.2052
   7928 OH2        -9.8660   -9.1080   18.8760 O.3   2589  TIP2578    -0.4105
   7929 H1         -9.8330   -8.9440   17.9340 H     2589  TIP2578     0.2052
   7930 H2        -10.5770   -9.7400   18.9850 H     2589  TIP2578     0.2052
   7931 OH2         5.9880   15.0530   -6.7850 O.3   2590  TIP2579    -0.4105
   7932 H1          6.9390   15.0420   -6.6760 H     2590  TIP2579     0.2052
   7933 H2          5.8220   14.4410   -7.5020 H     2590  TIP2579     0.2052
   7934 OH2        20.1690   17.2370   12.3010 O.3   2591  TIP2580    -0.4105
   7935 H1         20.8950   17.8070   12.0480 H     2591  TIP2580     0.2052
   7936 H2         20.4630   16.3560   12.0670 H     2591  TIP2580     0.2052
   7937 OH2         2.9010   11.9920  -32.2450 O.3   2592  TIP2581    -0.4105
   7938 H1          3.0760   11.7870  -33.1640 H     2592  TIP2581     0.2052
   7939 H2          2.9560   12.9470  -32.1980 H     2592  TIP2581     0.2052
   7940 OH2        12.4410   -1.8510    6.2670 O.3   2593  TIP2582    -0.4105
   7941 H1         12.0120   -1.0040    6.3890 H     2593  TIP2582     0.2052
   7942 H2         12.0160   -2.4280    6.9010 H     2593  TIP2582     0.2052
   7943 OH2       -10.8160   14.3320  -17.7940 O.3   2594  TIP2583    -0.4105
   7944 H1        -10.9740   15.0570  -18.3980 H     2594  TIP2583     0.2052
   7945 H2        -11.6690   13.9060  -17.7030 H     2594  TIP2583     0.2052
   7946 OH2         2.6310  -25.4760   -9.0740 O.3   2595  TIP2584    -0.4105
   7947 H1          3.2600  -26.1790   -9.2370 H     2595  TIP2584     0.2052
   7948 H2          3.1450  -24.6720   -9.1550 H     2595  TIP2584     0.2052
   7949 OH2        -9.8960   26.3290   -9.8440 O.3   2596  TIP2585    -0.4105
   7950 H1         -9.1030   26.3540   -9.3090 H     2596  TIP2585     0.2052
   7951 H2        -10.3440   27.1520   -9.6490 H     2596  TIP2585     0.2052
   7952 OH2        -8.6910   12.3540    2.2990 O.3   2597  TIP2586    -0.4105
   7953 H1         -8.4110   11.4670    2.5270 H     2597  TIP2586     0.2052
   7954 H2         -8.0520   12.9250    2.7260 H     2597  TIP2586     0.2052
   7955 OH2        16.7600  -12.5100   16.7610 O.3   2598  TIP2587    -0.4105
   7956 H1         17.6230  -12.9110   16.8650 H     2598  TIP2587     0.2052
   7957 H2         16.9120  -11.5750   16.9000 H     2598  TIP2587     0.2052
   7958 OH2        10.2520   -4.8820   -8.1180 O.3   2599  TIP2588    -0.4105
   7959 H1          9.8050   -4.3050   -8.7370 H     2599  TIP2588     0.2052
   7960 H2          9.7930   -4.7460   -7.2890 H     2599  TIP2588     0.2052
   7961 OH2        -7.9670   31.3930    9.5140 O.3   2600  TIP2589    -0.4105
   7962 H1         -8.1810   31.1740    8.6080 H     2600  TIP2589     0.2052
   7963 H2         -7.0280   31.5820    9.5000 H     2600  TIP2589     0.2052
   7964 OH2        20.5990   16.7750   -9.4490 O.3   2601  TIP2590    -0.4105
   7965 H1         21.0110   17.1330  -10.2350 H     2601  TIP2590     0.2052
   7966 H2         21.1400   17.0940   -8.7270 H     2601  TIP2590     0.2052
   7967 OH2         0.5370  -10.5370  -23.3720 O.3   2602  TIP2591    -0.4105
   7968 H1         -0.0340  -10.0010  -23.9220 H     2602  TIP2591     0.2052
   7969 H2          0.8590  -11.2230  -23.9580 H     2602  TIP2591     0.2052
   7970 OH2        24.8570   -7.1460    2.6460 O.3   2603  TIP2592    -0.4105
   7971 H1         24.9750   -7.6890    1.8660 H     2603  TIP2592     0.2052
   7972 H2         25.5960   -6.5370    2.6280 H     2603  TIP2592     0.2052
   7973 OH2       -16.9220  -14.0900   -2.2780 O.3   2604  TIP2593    -0.4105
   7974 H1        -17.8460  -13.8580   -2.3710 H     2604  TIP2593     0.2052
   7975 H2        -16.5490  -13.9440   -3.1470 H     2604  TIP2593     0.2052
   7976 OH2       -13.6560   -3.2170    7.3160 O.3   2605  TIP2594    -0.4105
   7977 H1        -14.4120   -2.9550    6.7910 H     2605  TIP2594     0.2052
   7978 H2        -13.5160   -4.1370    7.0940 H     2605  TIP2594     0.2052
   7979 OH2        19.4040   10.9860   10.8070 O.3   2606  TIP2595    -0.4105
   7980 H1         19.9510   10.3950   10.2900 H     2606  TIP2595     0.2052
   7981 H2         18.5320   10.9050   10.4210 H     2606  TIP2595     0.2052
   7982 OH2        -9.3420  -19.8440  -12.7760 O.3   2607  TIP2596    -0.4105
   7983 H1         -8.4050  -20.0380  -12.7430 H     2607  TIP2596     0.2052
   7984 H2         -9.6880  -20.4430  -13.4380 H     2607  TIP2596     0.2052
   7985 OH2        -0.6800   18.4560  -26.7370 O.3   2608  TIP2597    -0.4105
   7986 H1         -0.6980   18.0450  -25.8730 H     2608  TIP2597     0.2052
   7987 H2         -0.1220   17.8840  -27.2640 H     2608  TIP2597     0.2052
   7988 OH2       -15.1460  -10.6460  -11.2130 O.3   2609  TIP2598    -0.4105
   7989 H1        -14.5450  -11.3130  -11.5430 H     2609  TIP2598     0.2052
   7990 H2        -15.9910  -10.8700  -11.6030 H     2609  TIP2598     0.2052
   7991 OH2        -0.6780    2.2450  -25.5220 O.3   2610  TIP2599    -0.4105
   7992 H1          0.1530    2.1340  -25.9850 H     2610  TIP2599     0.2052
   7993 H2         -0.4860    2.8820  -24.8330 H     2610  TIP2599     0.2052
   7994 OH2       -11.5090    4.0550   10.6520 O.3   2611  TIP2600    -0.4105
   7995 H1        -11.7360    3.1500   10.4360 H     2611  TIP2600     0.2052
   7996 H2        -10.5700    4.0300   10.8340 H     2611  TIP2600     0.2052
   7997 OH2         3.2590   19.0350   -2.2050 O.3   2612  TIP2601    -0.4105
   7998 H1          2.3690   18.8710   -2.5170 H     2612  TIP2601     0.2052
   7999 H2          3.5300   18.2080   -1.8070 H     2612  TIP2601     0.2052
   8000 OH2         8.8740    5.9680   15.7520 O.3   2613  TIP2602    -0.4105
   8001 H1          9.1240    6.4480   16.5420 H     2613  TIP2602     0.2052
   8002 H2          9.3650    5.1480   15.8040 H     2613  TIP2602     0.2052
   8003 OH2        -3.0320   -2.5300   11.2920 O.3   2614  TIP2603    -0.4105
   8004 H1         -3.0190   -1.6760   11.7250 H     2614  TIP2603     0.2052
   8005 H2         -3.9550   -2.6800   11.0860 H     2614  TIP2603     0.2052
   8006 OH2       -12.7690  -10.5490    3.9390 O.3   2615  TIP2604    -0.4105
   8007 H1        -13.6650  -10.2260    3.8490 H     2615  TIP2604     0.2052
   8008 H2        -12.8610  -11.5000    3.9920 H     2615  TIP2604     0.2052
   8009 OH2         0.0800    7.8280  -34.0480 O.3   2616  TIP2605    -0.4105
   8010 H1          0.1590    8.2550  -33.1950 H     2616  TIP2605     0.2052
   8011 H2         -0.3820    7.0100  -33.8660 H     2616  TIP2605     0.2052
   8012 OH2       -17.5010  -11.8700   -8.8410 O.3   2617  TIP2606    -0.4105
   8013 H1        -16.6730  -11.4040   -8.7240 H     2617  TIP2606     0.2052
   8014 H2        -17.3460  -12.4520   -9.5850 H     2617  TIP2606     0.2052
   8015 OH2       -12.5210   29.7340    6.9790 O.3   2618  TIP2607    -0.4105
   8016 H1        -11.9620   30.1950    7.6050 H     2618  TIP2607     0.2052
   8017 H2        -12.6350   28.8610    7.3560 H     2618  TIP2607     0.2052
   8018 OH2         6.9970   -7.9320   29.6820 O.3   2619  TIP2608    -0.4105
   8019 H1          6.9400   -8.4840   30.4620 H     2619  TIP2608     0.2052
   8020 H2          6.7400   -7.0610   29.9850 H     2619  TIP2608     0.2052
   8021 OH2        -1.0780  -17.5330  -12.2150 O.3   2620  TIP2609    -0.4105
   8022 H1         -0.7370  -16.6860  -12.5040 H     2620  TIP2609     0.2052
   8023 H2         -1.9860  -17.5410  -12.5180 H     2620  TIP2609     0.2052
   8024 OH2       -12.5140   -9.9340   -6.5320 O.3   2621  TIP2610    -0.4105
   8025 H1        -11.7010   -9.5640   -6.1860 H     2621  TIP2610     0.2052
   8026 H2        -13.1970   -9.5920   -5.9550 H     2621  TIP2610     0.2052
   8027 OH2        -7.4920  -15.5540   27.1730 O.3   2622  TIP2611    -0.4105
   8028 H1         -7.3390  -15.8620   28.0670 H     2622  TIP2611     0.2052
   8029 H2         -7.9260  -16.2880   26.7370 H     2622  TIP2611     0.2052
   8030 OH2         6.8690  -13.1300   27.5000 O.3   2623  TIP2612    -0.4105
   8031 H1          7.0560  -14.0690   27.5120 H     2623  TIP2612     0.2052
   8032 H2          5.9610  -13.0690   27.2030 H     2623  TIP2612     0.2052
   8033 OH2         4.4110  -11.4620   -6.6340 O.3   2624  TIP2613    -0.4105
   8034 H1          5.3060  -11.1930   -6.8440 H     2624  TIP2613     0.2052
   8035 H2          4.4770  -12.4010   -6.4620 H     2624  TIP2613     0.2052
   8036 OH2        -9.9460   24.6160  -17.0150 O.3   2625  TIP2614    -0.4105
   8037 H1         -8.9920   24.6520  -16.9450 H     2625  TIP2614     0.2052
   8038 H2        -10.1260   23.7550  -17.3920 H     2625  TIP2614     0.2052
   8039 OH2        -6.9280   21.3060   -9.2750 O.3   2626  TIP2615    -0.4105
   8040 H1         -6.7090   21.8670   -8.5320 H     2626  TIP2615     0.2052
   8041 H2         -7.1410   20.4590   -8.8820 H     2626  TIP2615     0.2052
   8042 OH2       -36.6440   -0.8060    8.0460 O.3   2627  TIP2616    -0.4105
   8043 H1        -35.7720   -0.9630    8.4090 H     2627  TIP2616     0.2052
   8044 H2        -36.8820   -1.6340    7.6280 H     2627  TIP2616     0.2052
   8045 OH2       -34.3420   -0.1920    2.8670 O.3   2628  TIP2617    -0.4105
   8046 H1        -34.7100    0.5920    2.4600 H     2628  TIP2617     0.2052
   8047 H2        -34.3280   -0.8430    2.1650 H     2628  TIP2617     0.2052
   8048 OH2       -13.1280  -13.1780    4.1530 O.3   2629  TIP2618    -0.4105
   8049 H1        -13.2020  -14.0060    3.6780 H     2629  TIP2618     0.2052
   8050 H2        -14.0050  -13.0230    4.5030 H     2629  TIP2618     0.2052
   8051 OH2        -3.0180   25.9290   10.5750 O.3   2630  TIP2619    -0.4105
   8052 H1         -3.0670   26.7750   10.1290 H     2630  TIP2619     0.2052
   8053 H2         -3.4690   26.0710   11.4080 H     2630  TIP2619     0.2052
   8054 OH2       -21.8290   -2.6770   10.5540 O.3   2631  TIP2620    -0.4105
   8055 H1        -22.6920   -2.2880   10.6920 H     2631  TIP2620     0.2052
   8056 H2        -21.7840   -3.3920   11.1890 H     2631  TIP2620     0.2052
   8057 OH2       -15.0570   16.5040   -3.1010 O.3   2632  TIP2621    -0.4105
   8058 H1        -15.9510   16.2460   -3.3280 H     2632  TIP2621     0.2052
   8059 H2        -14.6790   16.8100   -3.9260 H     2632  TIP2621     0.2052
   8060 OH2         3.9350    0.8940   12.8890 O.3   2633  TIP2622    -0.4105
   8061 H1          3.2270    1.4040   13.2820 H     2633  TIP2622     0.2052
   8062 H2          4.2400    1.4300   12.1570 H     2633  TIP2622     0.2052
   8063 OH2        26.2830   13.5990    2.2350 O.3   2634  TIP2623    -0.4105
   8064 H1         25.8630   14.4090    1.9430 H     2634  TIP2623     0.2052
   8065 H2         25.9830   12.9360    1.6130 H     2634  TIP2623     0.2052
   8066 OH2        -7.2680   -6.9980  -21.8430 O.3   2635  TIP2624    -0.4105
   8067 H1         -7.6190   -6.5000  -22.5810 H     2635  TIP2624     0.2052
   8068 H2         -8.0220   -7.1490  -21.2740 H     2635  TIP2624     0.2052
   8069 OH2         3.9290    7.7520   12.7120 O.3   2636  TIP2625    -0.4105
   8070 H1          3.5790    6.8770   12.5450 H     2636  TIP2625     0.2052
   8071 H2          3.1990    8.3420   12.5260 H     2636  TIP2625     0.2052
   8072 OH2         7.4810   11.5150   29.8370 O.3   2637  TIP2626    -0.4105
   8073 H1          7.9250   11.7340   30.6570 H     2637  TIP2626     0.2052
   8074 H2          8.0950   11.7840   29.1540 H     2637  TIP2626     0.2052
   8075 OH2        17.2270  -19.0890   13.9310 O.3   2638  TIP2627    -0.4105
   8076 H1         16.8030  -18.2910   14.2450 H     2638  TIP2627     0.2052
   8077 H2         17.6830  -18.8210   13.1330 H     2638  TIP2627     0.2052
   8078 OH2       -10.0710   -9.1350   -5.4590 O.3   2639  TIP2628    -0.4105
   8079 H1         -9.7330   -9.9820   -5.1680 H     2639  TIP2628     0.2052
   8080 H2         -9.2910   -8.5940   -5.5810 H     2639  TIP2628     0.2052
   8081 OH2        18.3220   14.2610  -22.4460 O.3   2640  TIP2629    -0.4105
   8082 H1         18.6060   15.1740  -22.4880 H     2640  TIP2629     0.2052
   8083 H2         18.2340   14.0790  -21.5110 H     2640  TIP2629     0.2052
   8084 OH2       -27.4780   22.3490    3.2050 O.3   2641  TIP2630    -0.4105
   8085 H1        -27.1870   22.1370    4.0910 H     2641  TIP2630     0.2052
   8086 H2        -26.6720   22.5360    2.7250 H     2641  TIP2630     0.2052
   8087 OH2        16.1070   -1.8890    3.0610 O.3   2642  TIP2631    -0.4105
   8088 H1         16.2600   -1.2000    2.4140 H     2642  TIP2631     0.2052
   8089 H2         15.4980   -1.4980    3.6880 H     2642  TIP2631     0.2052
   8090 OH2        17.2790    8.2100   14.9560 O.3   2643  TIP2632    -0.4105
   8091 H1         17.3720    8.9770   14.3900 H     2643  TIP2632     0.2052
   8092 H2         16.9360    8.5600   15.7780 H     2643  TIP2632     0.2052
   8093 OH2         4.1000    7.4710  -17.3130 O.3   2644  TIP2633    -0.4105
   8094 H1          4.0580    7.9390  -16.4790 H     2644  TIP2633     0.2052
   8095 H2          4.9890    7.6270  -17.6320 H     2644  TIP2633     0.2052
   8096 OH2         1.5800  -19.5800    7.0950 O.3   2645  TIP2634    -0.4105
   8097 H1          0.7880  -19.6660    6.5640 H     2645  TIP2634     0.2052
   8098 H2          1.3360  -18.9760    7.7950 H     2645  TIP2634     0.2052
   8099 OH2        -4.7840   -8.3900  -20.0200 O.3   2646  TIP2635    -0.4105
   8100 H1         -3.8790   -8.4620  -20.3250 H     2646  TIP2635     0.2052
   8101 H2         -5.3120   -8.6650  -20.7690 H     2646  TIP2635     0.2052
   8102 OH2       -18.9270   -4.4100    3.7370 O.3   2647  TIP2636    -0.4105
   8103 H1        -18.7090   -4.6920    2.8490 H     2647  TIP2636     0.2052
   8104 H2        -19.6380   -4.9910    4.0060 H     2647  TIP2636     0.2052
   8105 OH2        -3.5160    6.4690   19.8920 O.3   2648  TIP2637    -0.4105
   8106 H1         -2.6310    6.1090   19.9530 H     2648  TIP2637     0.2052
   8107 H2         -4.0030    6.0290   20.5890 H     2648  TIP2637     0.2052
   8108 OH2       -20.9390   10.5550   11.3110 O.3   2649  TIP2638    -0.4105
   8109 H1        -21.1900    9.8010   11.8440 H     2649  TIP2638     0.2052
   8110 H2        -20.2540   10.9900   11.8180 H     2649  TIP2638     0.2052
   8111 OH2         7.7750  -26.8200   -1.2810 O.3   2650  TIP2639    -0.4105
   8112 H1          8.5120  -26.7770   -1.8910 H     2650  TIP2639     0.2052
   8113 H2          8.1550  -27.1560   -0.4690 H     2650  TIP2639     0.2052
   8114 OH2       -10.8430   22.4950   -6.5170 O.3   2651  TIP2640    -0.4105
   8115 H1        -10.5000   22.6640   -7.3940 H     2651  TIP2640     0.2052
   8116 H2        -11.4680   21.7800   -6.6370 H     2651  TIP2640     0.2052
   8117 OH2        -0.7360    4.2940   -1.5640 O.3   2652  TIP2641    -0.4105
   8118 H1         -1.0730    3.9450   -0.7390 H     2652  TIP2641     0.2052
   8119 H2         -1.3100    5.0340   -1.7630 H     2652  TIP2641     0.2052
   8120 OH2        -9.6440  -16.2790   35.9850 O.3   2653  TIP2642    -0.4105
   8121 H1        -10.1280  -15.9180   36.7270 H     2653  TIP2642     0.2052
   8122 H2         -9.0600  -15.5710   35.7120 H     2653  TIP2642     0.2052
   8123 OH2        21.0660  -26.7960    4.2600 O.3   2654  TIP2643    -0.4105
   8124 H1         21.4650  -26.2470    3.5850 H     2654  TIP2643     0.2052
   8125 H2         20.6800  -27.5270    3.7770 H     2654  TIP2643     0.2052
   8126 OH2        -7.9320  -17.0990   -8.3400 O.3   2655  TIP2644    -0.4105
   8127 H1         -8.2610  -16.6560   -9.1220 H     2655  TIP2644     0.2052
   8128 H2         -8.4990  -16.7930   -7.6330 H     2655  TIP2644     0.2052
   8129 OH2         0.9330   -1.4310   -6.3970 O.3   2656  TIP2645    -0.4105
   8130 H1          1.2910   -1.9500   -5.6780 H     2656  TIP2645     0.2052
   8131 H2          0.1050   -1.0890   -6.0580 H     2656  TIP2645     0.2052
   8132 OH2         8.9170   -6.2470    7.4730 O.3   2657  TIP2646    -0.4105
   8133 H1          7.9740   -6.0880    7.4290 H     2657  TIP2646     0.2052
   8134 H2          9.0070   -6.9910    8.0690 H     2657  TIP2646     0.2052
   8135 OH2         0.7130   15.2260  -37.0640 O.3   2658  TIP2647    -0.4105
   8136 H1          1.2600   15.8610  -36.6010 H     2658  TIP2647     0.2052
   8137 H2         -0.0440   15.1000  -36.4920 H     2658  TIP2647     0.2052
   8138 OH2       -24.7480  -20.5660  -15.6820 O.3   2659  TIP2648    -0.4105
   8139 H1        -25.6130  -20.9710  -15.6130 H     2659  TIP2648     0.2052
   8140 H2        -24.1450  -21.2300  -15.3480 H     2659  TIP2648     0.2052
   8141 OH2        -3.7230   26.0580   -7.1670 O.3   2660  TIP2649    -0.4105
   8142 H1         -4.4270   25.7750   -6.5840 H     2660  TIP2649     0.2052
   8143 H2         -4.1750   26.4580   -7.9110 H     2660  TIP2649     0.2052
   8144 OH2       -15.2890   -2.4730    9.6090 O.3   2661  TIP2650    -0.4105
   8145 H1        -14.8260   -1.8450    9.0540 H     2661  TIP2650     0.2052
   8146 H2        -16.0850   -2.6830    9.1210 H     2661  TIP2650     0.2052
   8147 OH2       -12.2990  -25.3250  -10.0030 O.3   2662  TIP2651    -0.4105
   8148 H1        -12.5910  -24.7970  -10.7460 H     2662  TIP2651     0.2052
   8149 H2        -13.1050  -25.6830   -9.6310 H     2662  TIP2651     0.2052
   8150 OH2        16.2310  -16.8920    4.3150 O.3   2663  TIP2652    -0.4105
   8151 H1         16.1670  -17.8180    4.5470 H     2663  TIP2652     0.2052
   8152 H2         15.3740  -16.6760    3.9490 H     2663  TIP2652     0.2052
   8153 OH2        11.5990    8.1590   -2.3530 O.3   2664  TIP2653    -0.4105
   8154 H1         11.3160    7.7630   -1.5290 H     2664  TIP2653     0.2052
   8155 H2         11.1470    9.0020   -2.3820 H     2664  TIP2653     0.2052
   8156 OH2       -18.6990   -2.1860   -8.9570 O.3   2665  TIP2654    -0.4105
   8157 H1        -18.3660   -1.3750   -9.3400 H     2665  TIP2654     0.2052
   8158 H2        -17.9220   -2.6240   -8.6100 H     2665  TIP2654     0.2052
   8159 OH2        -7.9010  -16.6040  -19.1270 O.3   2666  TIP2655    -0.4105
   8160 H1         -7.8750  -17.3590  -19.7160 H     2666  TIP2655     0.2052
   8161 H2         -7.1350  -16.7130  -18.5640 H     2666  TIP2655     0.2052
   8162 OH2        -2.9900   -8.0600   29.8990 O.3   2667  TIP2656    -0.4105
   8163 H1         -2.2490   -8.5190   30.2960 H     2667  TIP2656     0.2052
   8164 H2         -2.6260   -7.6490   29.1150 H     2667  TIP2656     0.2052
   8165 OH2       -13.6480   -1.7700    4.5040 O.3   2668  TIP2657    -0.4105
   8166 H1        -14.1530   -0.9760    4.6820 H     2668  TIP2657     0.2052
   8167 H2        -14.2280   -2.3080    3.9650 H     2668  TIP2657     0.2052
   8168 OH2        19.1440   -6.3360    7.1860 O.3   2669  TIP2658    -0.4105
   8169 H1         20.0990   -6.2940    7.2470 H     2669  TIP2658     0.2052
   8170 H2         18.8680   -5.4220    7.1120 H     2669  TIP2658     0.2052
   8171 OH2        19.7680   17.9470    0.8740 O.3   2670  TIP2659    -0.4105
   8172 H1         18.8380   18.1370    0.7510 H     2670  TIP2659     0.2052
   8173 H2         20.1580   18.0830    0.0100 H     2670  TIP2659     0.2052
   8174 OH2       -17.4900   -4.0280   20.4690 O.3   2671  TIP2660    -0.4105
   8175 H1        -17.0450   -4.8690   20.3640 H     2671  TIP2660     0.2052
   8176 H2        -17.9580   -3.9000   19.6440 H     2671  TIP2660     0.2052
   8177 OH2       -22.7320    6.5680    6.6830 O.3   2672  TIP2661    -0.4105
   8178 H1        -23.6580    6.3360    6.6010 H     2672  TIP2661     0.2052
   8179 H2        -22.5230    6.3980    7.6020 H     2672  TIP2661     0.2052
   8180 OH2         3.3000   10.5550   -8.1730 O.3   2673  TIP2662    -0.4105
   8181 H1          2.8870   11.0370   -7.4570 H     2673  TIP2662     0.2052
   8182 H2          3.7570    9.8320   -7.7420 H     2673  TIP2662     0.2052
   8183 OH2         5.0410   13.1200  -19.2860 O.3   2674  TIP2663    -0.4105
   8184 H1          4.2490   12.6980  -18.9530 H     2674  TIP2663     0.2052
   8185 H2          5.4070   12.4880  -19.9060 H     2674  TIP2663     0.2052
   8186 OH2        17.7190   10.8600    3.5080 O.3   2675  TIP2664    -0.4105
   8187 H1         17.6930   11.1840    4.4090 H     2675  TIP2664     0.2052
   8188 H2         17.2710   11.5350    2.9970 H     2675  TIP2664     0.2052
   8189 OH2       -15.1880    4.3130  -15.1620 O.3   2676  TIP2665    -0.4105
   8190 H1        -15.5320    5.1310  -14.8040 H     2676  TIP2665     0.2052
   8191 H2        -15.0040    4.5120  -16.0800 H     2676  TIP2665     0.2052
   8192 OH2        17.8040   12.5240  -10.1620 O.3   2677  TIP2666    -0.4105
   8193 H1         17.4090   12.3050  -11.0060 H     2677  TIP2666     0.2052
   8194 H2         17.5970   13.4490  -10.0330 H     2677  TIP2666     0.2052
   8195 OH2        19.5890   -0.0050  -14.3960 O.3   2678  TIP2667    -0.4105
   8196 H1         20.3700    0.5420  -14.3130 H     2678  TIP2667     0.2052
   8197 H2         18.9170    0.5860  -14.7350 H     2678  TIP2667     0.2052
   8198 OH2        19.5690  -19.3880    1.3060 O.3   2679  TIP2668    -0.4105
   8199 H1         19.2810  -18.7610    1.9700 H     2679  TIP2668     0.2052
   8200 H2         18.8200  -19.4740    0.7170 H     2679  TIP2668     0.2052
   8201 OH2        -1.9830   17.2440    5.9310 O.3   2680  TIP2669    -0.4105
   8202 H1         -1.5070   16.4540    6.1880 H     2680  TIP2669     0.2052
   8203 H2         -1.3130   17.9280    5.9010 H     2680  TIP2669     0.2052
   8204 OH2         1.6610  -28.1420   -6.1370 O.3   2681  TIP2670    -0.4105
   8205 H1          1.5170  -28.0350   -7.0770 H     2681  TIP2670     0.2052
   8206 H2          0.8340  -28.4920   -5.8060 H     2681  TIP2670     0.2052
   8207 OH2        29.4550   -2.6770   -5.5140 O.3   2682  TIP2671    -0.4105
   8208 H1         28.7930   -3.3270   -5.2800 H     2682  TIP2671     0.2052
   8209 H2         29.0930   -1.8450   -5.2100 H     2682  TIP2671     0.2052
   8210 OH2       -23.2690   -4.1860    1.6640 O.3   2683  TIP2672    -0.4105
   8211 H1        -22.7050   -3.5230    1.2660 H     2683  TIP2672     0.2052
   8212 H2        -24.0580   -4.1860    1.1220 H     2683  TIP2672     0.2052
   8213 OH2        17.9370    9.0980  -22.3660 O.3   2684  TIP2673    -0.4105
   8214 H1         18.0460    8.3890  -21.7320 H     2684  TIP2673     0.2052
   8215 H2         18.7650    9.5770  -22.3350 H     2684  TIP2673     0.2052
   8216 OH2         1.2190    9.2470   -1.2960 O.3   2685  TIP2674    -0.4105
   8217 H1          1.1830    9.9710   -1.9210 H     2685  TIP2674     0.2052
   8218 H2          1.0900    8.4630   -1.8310 H     2685  TIP2674     0.2052
   8219 OH2       -12.1780  -18.1940   17.7700 O.3   2686  TIP2675    -0.4105
   8220 H1        -12.6430  -17.3600   17.7090 H     2686  TIP2675     0.2052
   8221 H2        -11.2720  -17.9810   17.5470 H     2686  TIP2675     0.2052
   8222 OH2         6.9130    9.2450  -31.3510 O.3   2687  TIP2676    -0.4105
   8223 H1          7.1670    9.7290  -30.5640 H     2687  TIP2676     0.2052
   8224 H2          7.7370    9.0840  -31.8100 H     2687  TIP2676     0.2052
   8225 OH2       -19.1450   -8.4860    5.6730 O.3   2688  TIP2677    -0.4105
   8226 H1        -18.2500   -8.6670    5.9600 H     2688  TIP2677     0.2052
   8227 H2        -19.4070   -7.7160    6.1780 H     2688  TIP2677     0.2052
   8228 OH2        -6.8050    0.9790  -18.9580 O.3   2689  TIP2678    -0.4105
   8229 H1         -6.4260    1.0980  -18.0870 H     2689  TIP2678     0.2052
   8230 H2         -7.3160    0.1730  -18.8900 H     2689  TIP2678     0.2052
   8231 OH2       -21.5790    3.6150   16.2310 O.3   2690  TIP2679    -0.4105
   8232 H1        -21.9790    4.4750   16.1030 H     2690  TIP2679     0.2052
   8233 H2        -21.0800    3.7000   17.0440 H     2690  TIP2679     0.2052
   8234 OH2       -16.5190   -3.5960   -7.5620 O.3   2691  TIP2680    -0.4105
   8235 H1        -16.0700   -3.7100   -8.3990 H     2691  TIP2680     0.2052
   8236 H2        -16.1890   -2.7630   -7.2240 H     2691  TIP2680     0.2052
   8237 OH2        21.2150   -0.2170   15.4590 O.3   2692  TIP2681    -0.4105
   8238 H1         20.3740    0.2200   15.3220 H     2692  TIP2681     0.2052
   8239 H2         21.8260    0.4930   15.6530 H     2692  TIP2681     0.2052
   8240 OH2       -12.9190  -10.6710  -23.3760 O.3   2693  TIP2682    -0.4105
   8241 H1        -12.6870  -10.7890  -24.2970 H     2693  TIP2682     0.2052
   8242 H2        -13.1540  -11.5490  -23.0730 H     2693  TIP2682     0.2052
   8243 OH2        10.5110   13.0190   11.6650 O.3   2694  TIP2683    -0.4105
   8244 H1         10.8960   13.8550   11.9280 H     2694  TIP2683     0.2052
   8245 H2         11.2610   12.4420   11.5270 H     2694  TIP2683     0.2052
   8246 OH2        21.5380   16.0670   15.1950 O.3   2695  TIP2684    -0.4105
   8247 H1         21.0890   15.2640   14.9310 H     2695  TIP2684     0.2052
   8248 H2         22.3560   16.0580   14.6970 H     2695  TIP2684     0.2052
   8249 OH2         0.2270  -11.8980   -1.1970 O.3   2696  TIP2685    -0.4105
   8250 H1          0.7710  -12.2730   -0.5030 H     2696  TIP2685     0.2052
   8251 H2         -0.6660  -12.1500   -0.9630 H     2696  TIP2685     0.2052
   8252 OH2        25.9830  -11.2050    0.9200 O.3   2697  TIP2686    -0.4105
   8253 H1         25.8940  -11.5930    0.0500 H     2697  TIP2686     0.2052
   8254 H2         25.7570  -11.9130    1.5230 H     2697  TIP2686     0.2052
   8255 OH2        -3.4820   18.8180   15.9470 O.3   2698  TIP2687    -0.4105
   8256 H1         -3.6320   17.8730   15.9720 H     2698  TIP2687     0.2052
   8257 H2         -3.4060   19.0730   16.8670 H     2698  TIP2687     0.2052
   8258 OH2        -4.5180   22.4620  -16.4050 O.3   2699  TIP2688    -0.4105
   8259 H1         -5.3230   22.8270  -16.0390 H     2699  TIP2688     0.2052
   8260 H2         -3.9410   23.2170  -16.5160 H     2699  TIP2688     0.2052
   8261 OH2       -12.0860   -6.3660   -6.0020 O.3   2700  TIP2689    -0.4105
   8262 H1        -11.8860   -7.1440   -5.4810 H     2700  TIP2689     0.2052
   8263 H2        -12.6380   -5.8310   -5.4330 H     2700  TIP2689     0.2052
   8264 OH2        17.4170   19.7100   -2.7680 O.3   2701  TIP2690    -0.4105
   8265 H1         18.1870   20.2590   -2.6230 H     2701  TIP2690     0.2052
   8266 H2         17.3610   19.6200   -3.7190 H     2701  TIP2690     0.2052
   8267 OH2       -12.2080   13.2670   10.1030 O.3   2702  TIP2691    -0.4105
   8268 H1        -12.8680   13.9560   10.0170 H     2702  TIP2691     0.2052
   8269 H2        -12.2460   12.7940    9.2720 H     2702  TIP2691     0.2052
   8270 OH2        -5.6050   12.4710   24.2290 O.3   2703  TIP2692    -0.4105
   8271 H1         -5.0710   11.8940   23.6840 H     2703  TIP2692     0.2052
   8272 H2         -5.4490   13.3470   23.8750 H     2703  TIP2692     0.2052
   8273 OH2        13.6950    1.4760   11.5110 O.3   2704  TIP2693    -0.4105
   8274 H1         13.5950    0.6060   11.1250 H     2704  TIP2693     0.2052
   8275 H2         14.6410    1.6160   11.5460 H     2704  TIP2693     0.2052
   8276 OH2       -16.0110   -0.8940   -7.6970 O.3   2705  TIP2694    -0.4105
   8277 H1        -16.6710   -0.3620   -7.2520 H     2705  TIP2694     0.2052
   8278 H2        -15.5960   -0.2930   -8.3160 H     2705  TIP2694     0.2052
   8279 OH2         4.5190   -3.9200   25.3120 O.3   2706  TIP2695    -0.4105
   8280 H1          5.4690   -3.9810   25.2070 H     2706  TIP2695     0.2052
   8281 H2          4.3960   -3.2850   26.0180 H     2706  TIP2695     0.2052
   8282 OH2       -16.0960   -6.9690   -5.7570 O.3   2707  TIP2696    -0.4105
   8283 H1        -15.5570   -6.5860   -5.0650 H     2707  TIP2696     0.2052
   8284 H2        -16.9410   -6.5270   -5.6750 H     2707  TIP2696     0.2052
   8285 OH2        -9.5580   -5.4310   24.2290 O.3   2708  TIP2697    -0.4105
   8286 H1         -8.8310   -6.0400   24.0980 H     2708  TIP2697     0.2052
   8287 H2        -10.3150   -5.9920   24.3980 H     2708  TIP2697     0.2052
   8288 OH2        -0.2450  -29.6720  -15.7000 O.3   2709  TIP2698    -0.4105
   8289 H1          0.4100  -30.3230  -15.9510 H     2709  TIP2698     0.2052
   8290 H2         -0.3470  -29.7870  -14.7550 H     2709  TIP2698     0.2052
   8291 OH2        -3.2870   11.1160  -20.9090 O.3   2710  TIP2699    -0.4105
   8292 H1         -2.4040   11.3200  -21.2170 H     2710  TIP2699     0.2052
   8293 H2         -3.1570   10.4570  -20.2270 H     2710  TIP2699     0.2052
   8294 OH2       -30.4280   21.4830    4.0130 O.3   2711  TIP2700    -0.4105
   8295 H1        -30.4680   21.5150    3.0570 H     2711  TIP2700     0.2052
   8296 H2        -30.6920   22.3590    4.2940 H     2711  TIP2700     0.2052
   8297 OH2       -13.7350    0.5120    1.1650 O.3   2712  TIP2701    -0.4105
   8298 H1        -13.7900   -0.3900    1.4830 H     2712  TIP2701     0.2052
   8299 H2        -12.8270    0.6100    0.8790 H     2712  TIP2701     0.2052
   8300 OH2       -10.3120  -15.1190  -21.3900 O.3   2713  TIP2702    -0.4105
   8301 H1         -9.8640  -14.9480  -20.5610 H     2713  TIP2702     0.2052
   8302 H2        -11.0180  -14.4740  -21.4190 H     2713  TIP2702     0.2052
   8303 OH2        -9.6810    2.2180  -14.7920 O.3   2714  TIP2703    -0.4105
   8304 H1         -9.8910    2.7350  -15.5700 H     2714  TIP2703     0.2052
   8305 H2        -10.0140    2.7370  -14.0610 H     2714  TIP2703     0.2052
   8306 OH2        11.8560   23.9550   13.7100 O.3   2715  TIP2704    -0.4105
   8307 H1         11.7630   24.7090   13.1270 H     2715  TIP2704     0.2052
   8308 H2         12.5340   23.4180   13.2990 H     2715  TIP2704     0.2052
   8309 OH2        -8.6150  -10.5810  -22.4370 O.3   2716  TIP2705    -0.4105
   8310 H1         -9.3180  -10.3500  -23.0430 H     2716  TIP2705     0.2052
   8311 H2         -8.6950  -11.5280  -22.3260 H     2716  TIP2705     0.2052
   8312 OH2       -30.9070   -5.5290   -0.4620 O.3   2717  TIP2706    -0.4105
   8313 H1        -30.3470   -4.8040   -0.7400 H     2717  TIP2706     0.2052
   8314 H2        -30.5160   -5.8340    0.3570 H     2717  TIP2706     0.2052
   8315 OH2         6.3540  -24.6060   -1.9820 O.3   2718  TIP2707    -0.4105
   8316 H1          6.2880  -24.2740   -1.0870 H     2718  TIP2707     0.2052
   8317 H2          6.6710  -25.5040   -1.8830 H     2718  TIP2707     0.2052
   8318 OH2         2.4350   18.0610  -30.2720 O.3   2719  TIP2708    -0.4105
   8319 H1          2.9330   18.5770  -29.6370 H     2719  TIP2708     0.2052
   8320 H2          1.8750   17.4980  -29.7370 H     2719  TIP2708     0.2052
   8321 OH2        -6.0550    0.2990  -29.6790 O.3   2720  TIP2709    -0.4105
   8322 H1         -5.9790   -0.1450  -30.5230 H     2720  TIP2709     0.2052
   8323 H2         -5.9620    1.2280  -29.8870 H     2720  TIP2709     0.2052
   8324 OH2        18.0490   20.7810   13.8720 O.3   2721  TIP2710    -0.4105
   8325 H1         18.9950   20.7440   13.7350 H     2721  TIP2710     0.2052
   8326 H2         17.6770   20.3740   13.0890 H     2721  TIP2710     0.2052
   8327 OH2        24.4810   -2.8540  -13.7980 O.3   2722  TIP2711    -0.4105
   8328 H1         25.1770   -2.4710  -13.2650 H     2722  TIP2711     0.2052
   8329 H2         24.4970   -3.7860  -13.5800 H     2722  TIP2711     0.2052
   8330 OH2       -28.2220   -1.3970   -5.4820 O.3   2723  TIP2712    -0.4105
   8331 H1        -27.6210   -1.1940   -4.7660 H     2723  TIP2712     0.2052
   8332 H2        -29.0520   -1.5970   -5.0490 H     2723  TIP2712     0.2052
   8333 OH2        34.1190   -2.3100   -5.3090 O.3   2724  TIP2713    -0.4105
   8334 H1         34.9720   -1.8770   -5.3260 H     2724  TIP2713     0.2052
   8335 H2         33.5620   -1.7650   -5.8660 H     2724  TIP2713     0.2052
   8336 OH2        -9.1400    4.7290    8.4770 O.3   2725  TIP2714    -0.4105
   8337 H1         -8.8740    4.7260    9.3970 H     2725  TIP2714     0.2052
   8338 H2         -9.3450    5.6460    8.2900 H     2725  TIP2714     0.2052
   8339 OH2        19.3350  -12.6190   -7.3770 O.3   2726  TIP2715    -0.4105
   8340 H1         18.9690  -12.4650   -8.2480 H     2726  TIP2715     0.2052
   8341 H2         19.3240  -13.5710   -7.2780 H     2726  TIP2715     0.2052
   8342 OH2       -21.9290   23.5840    7.1770 O.3   2727  TIP2716    -0.4105
   8343 H1        -22.4520   23.9520    7.8890 H     2727  TIP2716     0.2052
   8344 H2        -22.2860   23.9850    6.3840 H     2727  TIP2716     0.2052
   8345 OH2        19.7060    6.7810  -18.1020 O.3   2728  TIP2717    -0.4105
   8346 H1         19.9020    7.7170  -18.0560 H     2728  TIP2717     0.2052
   8347 H2         19.2370    6.6750  -18.9300 H     2728  TIP2717     0.2052
   8348 OH2        -4.6460    2.9940   17.3590 O.3   2729  TIP2718    -0.4105
   8349 H1         -3.7060    3.0390   17.5350 H     2729  TIP2718     0.2052
   8350 H2         -4.8930    3.8950   17.1500 H     2729  TIP2718     0.2052
   8351 OH2         2.4290  -23.9560   15.3860 O.3   2730  TIP2719    -0.4105
   8352 H1          1.8160  -23.2370   15.2340 H     2730  TIP2719     0.2052
   8353 H2          2.2120  -24.6030   14.7160 H     2730  TIP2719     0.2052
   8354 OH2        19.2910    4.0200   14.5080 O.3   2731  TIP2720    -0.4105
   8355 H1         19.0130    4.3320   15.3690 H     2731  TIP2720     0.2052
   8356 H2         19.1750    3.0710   14.5480 H     2731  TIP2720     0.2052
   8357 OH2        -6.5580   24.7930    0.3420 O.3   2732  TIP2721    -0.4105
   8358 H1         -6.6870   25.5020    0.9730 H     2732  TIP2721     0.2052
   8359 H2         -6.4420   25.2370   -0.4980 H     2732  TIP2721     0.2052
   8360 OH2        27.2290   -0.9510    5.6510 O.3   2733  TIP2722    -0.4105
   8361 H1         27.6620   -0.7800    4.8140 H     2733  TIP2722     0.2052
   8362 H2         27.2670   -0.1150    6.1150 H     2733  TIP2722     0.2052
   8363 OH2        14.7590  -15.3870   -3.2320 O.3   2734  TIP2723    -0.4105
   8364 H1         14.2940  -14.5660   -3.3930 H     2734  TIP2723     0.2052
   8365 H2         15.4530  -15.4030   -3.8920 H     2734  TIP2723     0.2052
   8366 OH2        -2.4040   11.7070   14.5110 O.3   2735  TIP2724    -0.4105
   8367 H1         -1.4860   11.6600   14.7790 H     2735  TIP2724     0.2052
   8368 H2         -2.6710   10.7940   14.4070 H     2735  TIP2724     0.2052
   8369 OH2         4.8880   16.1440   19.1130 O.3   2736  TIP2725    -0.4105
   8370 H1          4.3070   16.8610   19.3680 H     2736  TIP2725     0.2052
   8371 H2          5.6790   16.5780   18.7930 H     2736  TIP2725     0.2052
   8372 OH2       -11.2200    6.1510  -12.2210 O.3   2737  TIP2726    -0.4105
   8373 H1        -10.7120    6.9380  -12.0210 H     2737  TIP2726     0.2052
   8374 H2        -11.4670    5.8010  -11.3650 H     2737  TIP2726     0.2052
   8375 OH2        16.0040    1.4300  -11.7620 O.3   2738  TIP2727    -0.4105
   8376 H1         15.1080    1.2240  -12.0280 H     2738  TIP2727     0.2052
   8377 H2         16.5350    0.7320  -12.1460 H     2738  TIP2727     0.2052
   8378 OH2        -5.2380   -9.8620   -7.0990 O.3   2739  TIP2728    -0.4105
   8379 H1         -4.4910   -9.8460   -7.6980 H     2739  TIP2728     0.2052
   8380 H2         -5.2470   -8.9900   -6.7040 H     2739  TIP2728     0.2052
   8381 OH2       -10.9220   20.7870   -3.7160 O.3   2740  TIP2729    -0.4105
   8382 H1        -11.3250   20.1670   -3.1080 H     2740  TIP2729     0.2052
   8383 H2        -10.0960   20.3730   -3.9680 H     2740  TIP2729     0.2052
   8384 OH2         1.0780   23.4750   14.6070 O.3   2741  TIP2730    -0.4105
   8385 H1          1.6000   24.2560   14.4240 H     2741  TIP2730     0.2052
   8386 H2          1.5780   22.7570   14.2200 H     2741  TIP2730     0.2052
   8387 OH2       -20.1330  -16.7650    3.0030 O.3   2742  TIP2731    -0.4105
   8388 H1        -19.3210  -16.3640    3.3120 H     2742  TIP2731     0.2052
   8389 H2        -20.6850  -16.8210    3.7840 H     2742  TIP2731     0.2052
   8390 OH2         1.9140   23.1210  -16.8250 O.3   2743  TIP2732    -0.4105
   8391 H1          1.7100   22.1890  -16.7420 H     2743  TIP2732     0.2052
   8392 H2          2.6620   23.2560  -16.2440 H     2743  TIP2732     0.2052
   8393 OH2       -27.6100  -12.4940   22.0160 O.3   2744  TIP2733    -0.4105
   8394 H1        -28.0440  -13.3030   22.2880 H     2744  TIP2733     0.2052
   8395 H2        -27.5320  -11.9810   22.8200 H     2744  TIP2733     0.2052
   8396 OH2        32.6700    2.2830   -0.7610 O.3   2745  TIP2734    -0.4105
   8397 H1         31.9940    1.6380   -0.9710 H     2745  TIP2734     0.2052
   8398 H2         32.1830    3.0720   -0.5230 H     2745  TIP2734     0.2052
   8399 OH2       -20.1500   -9.4770   20.9500 O.3   2746  TIP2735    -0.4105
   8400 H1        -20.5010   -8.5910   20.8610 H     2746  TIP2735     0.2052
   8401 H2        -20.9160  -10.0230   21.1270 H     2746  TIP2735     0.2052
   8402 OH2        24.5170    7.3000    5.8850 O.3   2747  TIP2736    -0.4105
   8403 H1         24.6110    7.0920    4.9560 H     2747  TIP2736     0.2052
   8404 H2         24.8930    6.5460    6.3400 H     2747  TIP2736     0.2052
   8405 OH2        23.9100  -34.7010    0.5370 O.3   2748  TIP2737    -0.4105
   8406 H1         24.4000  -34.0270    0.0670 H     2748  TIP2737     0.2052
   8407 H2         23.9170  -35.4570   -0.0500 H     2748  TIP2737     0.2052
   8408 OH2        -9.1700   -0.4360  -15.1560 O.3   2749  TIP2738    -0.4105
   8409 H1         -9.5140   -0.7690  -14.3270 H     2749  TIP2738     0.2052
   8410 H2         -9.3330    0.5060  -15.1230 H     2749  TIP2738     0.2052
   8411 OH2        10.0080    6.8870   29.4030 O.3   2750  TIP2739    -0.4105
   8412 H1         10.0230    6.5230   30.2890 H     2750  TIP2739     0.2052
   8413 H2          9.2590    6.4650   28.9830 H     2750  TIP2739     0.2052
   8414 OH2        -0.0230   -4.7720  -28.1680 O.3   2751  TIP2740    -0.4105
   8415 H1          0.3260   -4.2430  -28.8860 H     2751  TIP2740     0.2052
   8416 H2         -0.0540   -5.6620  -28.5190 H     2751  TIP2740     0.2052
   8417 OH2         6.3070  -27.1800   19.2860 O.3   2752  TIP2741    -0.4105
   8418 H1          7.2110  -27.2750   19.5860 H     2752  TIP2741     0.2052
   8419 H2          5.9720  -28.0760   19.2470 H     2752  TIP2741     0.2052
   8420 OH2        -3.2710  -25.8980  -12.8000 O.3   2753  TIP2742    -0.4105
   8421 H1         -3.6180  -26.4110  -13.5300 H     2753  TIP2742     0.2052
   8422 H2         -3.4900  -24.9920  -13.0180 H     2753  TIP2742     0.2052
   8423 OH2         9.9220  -15.2690   -5.9640 O.3   2754  TIP2743    -0.4105
   8424 H1         10.3590  -14.9250   -5.1850 H     2754  TIP2743     0.2052
   8425 H2         10.5810  -15.2070   -6.6560 H     2754  TIP2743     0.2052
   8426 OH2        -9.3180  -13.0850   -3.1630 O.3   2755  TIP2744    -0.4105
   8427 H1         -8.7770  -12.2950   -3.1680 H     2755  TIP2744     0.2052
   8428 H2         -8.9630  -13.6230   -3.8710 H     2755  TIP2744     0.2052
   8429 OH2       -26.9270   10.6210   -2.7620 O.3   2756  TIP2745    -0.4105
   8430 H1        -26.1670   10.2110   -2.3490 H     2756  TIP2745     0.2052
   8431 H2        -26.9000   11.5310   -2.4680 H     2756  TIP2745     0.2052
   8432 OH2        20.4220   -8.3000   -7.6500 O.3   2757  TIP2746    -0.4105
   8433 H1         21.0740   -8.7440   -7.1070 H     2757  TIP2746     0.2052
   8434 H2         19.8410   -9.0000   -7.9470 H     2757  TIP2746     0.2052
   8435 OH2        10.4370    1.2360    5.0510 O.3   2758  TIP2747    -0.4105
   8436 H1         10.7780    1.1060    5.9360 H     2758  TIP2747     0.2052
   8437 H2         11.2170    1.3200    4.5030 H     2758  TIP2747     0.2052
   8438 OH2       -26.1970    0.8060   -6.9650 O.3   2759  TIP2748    -0.4105
   8439 H1        -26.9600    1.2980   -7.2680 H     2759  TIP2748     0.2052
   8440 H2        -26.3220    0.7290   -6.0190 H     2759  TIP2748     0.2052
   8441 OH2         8.3980   22.3560   -5.2430 O.3   2760  TIP2749    -0.4105
   8442 H1          8.0980   22.5690   -6.1270 H     2760  TIP2749     0.2052
   8443 H2          7.7410   22.7450   -4.6660 H     2760  TIP2749     0.2052
   8444 OH2       -14.6310  -16.2060   -0.4830 O.3   2761  TIP2750    -0.4105
   8445 H1        -14.1780  -15.4350   -0.8260 H     2761  TIP2750     0.2052
   8446 H2        -15.0130  -15.9120    0.3440 H     2761  TIP2750     0.2052
   8447 OH2       -20.8110    2.1930   13.9930 O.3   2762  TIP2751    -0.4105
   8448 H1        -20.7340    1.3010   14.3330 H     2762  TIP2751     0.2052
   8449 H2        -21.0960    2.7130   14.7440 H     2762  TIP2751     0.2052
   8450 OH2        -4.1700  -12.2280    8.4620 O.3   2763  TIP2752    -0.4105
   8451 H1         -4.6430  -11.3970    8.4290 H     2763  TIP2752     0.2052
   8452 H2         -4.4490  -12.6950    7.6750 H     2763  TIP2752     0.2052
   8453 OH2        -3.5210  -12.3680   28.6300 O.3   2764  TIP2753    -0.4105
   8454 H1         -4.3920  -12.0170   28.8160 H     2764  TIP2753     0.2052
   8455 H2         -3.0750  -11.6670   28.1550 H     2764  TIP2753     0.2052
   8456 OH2        14.3450   10.1680    5.0810 O.3   2765  TIP2754    -0.4105
   8457 H1         15.1410    9.6780    5.2880 H     2765  TIP2754     0.2052
   8458 H2         14.5960   11.0860    5.1810 H     2765  TIP2754     0.2052
   8459 OH2        22.4890   18.6150   10.9930 O.3   2766  TIP2755    -0.4105
   8460 H1         23.3070   18.1280   11.0970 H     2766  TIP2755     0.2052
   8461 H2         22.2490   18.4880   10.0760 H     2766  TIP2755     0.2052
   8462 OH2       -13.9850   28.7130  -10.7170 O.3   2767  TIP2756    -0.4105
   8463 H1        -13.9330   27.7600  -10.6500 H     2767  TIP2756     0.2052
   8464 H2        -13.4190   29.0350  -10.0150 H     2767  TIP2756     0.2052
   8465 OH2        -6.7620    4.4240  -17.1020 O.3   2768  TIP2757    -0.4105
   8466 H1         -6.6150    5.3240  -17.3920 H     2768  TIP2757     0.2052
   8467 H2         -7.6430    4.2130  -17.4120 H     2768  TIP2757     0.2052
   8468 OH2       -14.7760  -13.4190   16.8340 O.3   2769  TIP2758    -0.4105
   8469 H1        -15.0190  -12.4950   16.8900 H     2769  TIP2758     0.2052
   8470 H2        -14.9030  -13.7540   17.7210 H     2769  TIP2758     0.2052
   8471 OH2        13.7320   13.4620   -2.7380 O.3   2770  TIP2759    -0.4105
   8472 H1         13.1990   12.6840   -2.9000 H     2770  TIP2759     0.2052
   8473 H2         13.5010   13.7310   -1.8490 H     2770  TIP2759     0.2052
   8474 OH2        30.4490    0.7200   -0.3400 O.3   2771  TIP2760    -0.4105
   8475 H1         30.6240   -0.2200   -0.3850 H     2771  TIP2760     0.2052
   8476 H2         29.8160    0.8790   -1.0400 H     2771  TIP2760     0.2052
   8477 OH2        -1.7680   20.4610   -2.6370 O.3   2772  TIP2761    -0.4105
   8478 H1         -1.8880   20.7470   -3.5430 H     2772  TIP2761     0.2052
   8479 H2         -2.3790   20.9970   -2.1330 H     2772  TIP2761     0.2052
   8480 OH2       -17.9420  -20.3900    0.2010 O.3   2773  TIP2762    -0.4105
   8481 H1        -17.5180  -19.6130   -0.1630 H     2773  TIP2762     0.2052
   8482 H2        -18.8470  -20.3350   -0.1050 H     2773  TIP2762     0.2052
   8483 OH2        -5.0950  -24.2640   -7.8350 O.3   2774  TIP2763    -0.4105
   8484 H1         -5.1320  -23.9070   -8.7230 H     2774  TIP2763     0.2052
   8485 H2         -4.8310  -23.5230   -7.2900 H     2774  TIP2763     0.2052
   8486 OH2        -2.8340   29.4830    2.5200 O.3   2775  TIP2764    -0.4105
   8487 H1         -2.5070   28.6620    2.1530 H     2775  TIP2764     0.2052
   8488 H2         -2.8130   30.0990    1.7880 H     2775  TIP2764     0.2052
   8489 OH2        24.3150   18.2660    5.6160 O.3   2776  TIP2765    -0.4105
   8490 H1         23.4560   18.0270    5.2690 H     2776  TIP2765     0.2052
   8491 H2         24.6460   17.4600    6.0130 H     2776  TIP2765     0.2052
   8492 OH2        17.1210  -34.8180    4.6540 O.3   2777  TIP2766    -0.4105
   8493 H1         16.7450  -35.6980    4.6150 H     2777  TIP2766     0.2052
   8494 H2         16.6150  -34.3700    5.3310 H     2777  TIP2766     0.2052
   8495 OH2       -21.6340    6.6730    9.2990 O.3   2778  TIP2767    -0.4105
   8496 H1        -21.8010    7.0140   10.1780 H     2778  TIP2767     0.2052
   8497 H2        -21.0090    5.9610    9.4320 H     2778  TIP2767     0.2052
   8498 OH2       -10.5140  -11.2910    6.9060 O.3   2779  TIP2768    -0.4105
   8499 H1         -9.6210  -11.2330    6.5650 H     2779  TIP2768     0.2052
   8500 H2        -10.8210  -12.1550    6.6300 H     2779  TIP2768     0.2052
   8501 OH2        -9.0230  -19.2430  -18.1360 O.3   2780  TIP2769    -0.4105
   8502 H1         -9.1290  -18.3710  -17.7550 H     2780  TIP2769     0.2052
   8503 H2         -9.5900  -19.2380  -18.9070 H     2780  TIP2769     0.2052
   8504 OH2        37.4390    2.0900   -6.9870 O.3   2781  TIP2770    -0.4105
   8505 H1         37.1770    2.3340   -6.1000 H     2781  TIP2770     0.2052
   8506 H2         38.3940    2.0350   -6.9500 H     2781  TIP2770     0.2052
   8507 OH2         7.9180    6.5970  -14.9110 O.3   2782  TIP2771    -0.4105
   8508 H1          8.6820    6.7670  -15.4610 H     2782  TIP2771     0.2052
   8509 H2          7.8070    5.6470  -14.9410 H     2782  TIP2771     0.2052
   8510 OH2         1.7270   -6.3800   27.4190 O.3   2783  TIP2772    -0.4105
   8511 H1          1.4580   -6.6500   26.5410 H     2783  TIP2772     0.2052
   8512 H2          2.2010   -7.1350   27.7670 H     2783  TIP2772     0.2052
   8513 OH2         6.0010    0.4210    8.1800 O.3   2784  TIP2773    -0.4105
   8514 H1          6.1690    0.4290    7.2380 H     2784  TIP2773     0.2052
   8515 H2          6.2560    1.2950    8.4760 H     2784  TIP2773     0.2052
   8516 OH2        -0.4440  -12.5400   19.7500 O.3   2785  TIP2774    -0.4105
   8517 H1         -0.0760  -13.2720   20.2460 H     2785  TIP2774     0.2052
   8518 H2          0.3120  -11.9960   19.5300 H     2785  TIP2774     0.2052
   8519 OH2         5.8730  -23.9830    0.7140 O.3   2786  TIP2775    -0.4105
   8520 H1          5.4150  -23.2070    0.3940 H     2786  TIP2775     0.2052
   8521 H2          5.7170  -23.9820    1.6580 H     2786  TIP2775     0.2052
   8522 OH2        -9.0970  -13.7170    8.3800 O.3   2787  TIP2776    -0.4105
   8523 H1         -8.2780  -14.1820    8.5500 H     2787  TIP2776     0.2052
   8524 H2         -9.6960  -14.3930    8.0640 H     2787  TIP2776     0.2052
   8525 OH2        -0.7820    7.9060  -11.2680 O.3   2788  TIP2777    -0.4105
   8526 H1         -1.0580    8.6980  -11.7290 H     2788  TIP2777     0.2052
   8527 H2         -0.3760    8.2270  -10.4630 H     2788  TIP2777     0.2052
   8528 OH2         5.3550   -7.2120   13.5000 O.3   2789  TIP2778    -0.4105
   8529 H1          6.0070   -6.6620   13.9350 H     2789  TIP2778     0.2052
   8530 H2          5.8300   -8.0100   13.2690 H     2789  TIP2778     0.2052
   8531 OH2       -12.6070   -6.1660  -22.1630 O.3   2790  TIP2779    -0.4105
   8532 H1        -11.9850   -5.4800  -22.4070 H     2790  TIP2779     0.2052
   8533 H2        -12.9620   -5.8790  -21.3220 H     2790  TIP2779     0.2052
   8534 OH2       -29.5390    6.8480    6.0890 O.3   2791  TIP2780    -0.4105
   8535 H1        -29.6450    7.7570    6.3700 H     2791  TIP2780     0.2052
   8536 H2        -29.2800    6.9090    5.1700 H     2791  TIP2780     0.2052
   8537 OH2        -5.2050   14.3560  -22.9800 O.3   2792  TIP2781    -0.4105
   8538 H1         -5.9970   14.7720  -22.6380 H     2792  TIP2781     0.2052
   8539 H2         -5.2580   13.4510  -22.6730 H     2792  TIP2781     0.2052
   8540 OH2         5.7980    7.8000   -1.1820 O.3   2793  TIP2782    -0.4105
   8541 H1          5.0830    7.5920   -1.7840 H     2793  TIP2782     0.2052
   8542 H2          5.6450    8.7120   -0.9350 H     2793  TIP2782     0.2052
   8543 OH2         1.9470    1.9150  -27.2040 O.3   2794  TIP2783    -0.4105
   8544 H1          2.6310    2.5620  -27.3750 H     2794  TIP2783     0.2052
   8545 H2          1.7790    1.5140  -28.0560 H     2794  TIP2783     0.2052
   8546 OH2        -4.5230   13.5710  -27.6090 O.3   2795  TIP2784    -0.4105
   8547 H1         -4.4710   14.5230  -27.5240 H     2795  TIP2784     0.2052
   8548 H2         -5.4140   13.4060  -27.9180 H     2795  TIP2784     0.2052
   8549 OH2        -4.0900  -22.7280   13.3460 O.3   2796  TIP2785    -0.4105
   8550 H1         -4.7850  -22.1010   13.5460 H     2796  TIP2785     0.2052
   8551 H2         -3.8900  -23.1400   14.1860 H     2796  TIP2785     0.2052
   8552 OH2       -25.6080    9.9620   -5.5970 O.3   2797  TIP2786    -0.4105
   8553 H1        -25.1330   10.5860   -6.1460 H     2797  TIP2786     0.2052
   8554 H2        -25.9030   10.4790   -4.8470 H     2797  TIP2786     0.2052
   8555 OH2        21.7510    1.7330  -14.2130 O.3   2798  TIP2787    -0.4105
   8556 H1         22.4370    1.0650  -14.2140 H     2798  TIP2787     0.2052
   8557 H2         22.1780    2.5150  -13.8630 H     2798  TIP2787     0.2052
   8558 OH2       -18.1350   -5.3040   -5.9290 O.3   2799  TIP2788    -0.4105
   8559 H1        -17.6300   -5.2340   -6.7400 H     2799  TIP2788     0.2052
   8560 H2        -18.3080   -4.3980   -5.6750 H     2799  TIP2788     0.2052
   8561 OH2        -9.8190  -10.6980  -18.8570 O.3   2800  TIP2789    -0.4105
   8562 H1         -8.8870  -10.5180  -18.9770 H     2800  TIP2789     0.2052
   8563 H2        -10.2490  -10.2170  -19.5640 H     2800  TIP2789     0.2052
   8564 OH2       -14.9890  -24.4460  -17.6780 O.3   2801  TIP2790    -0.4105
   8565 H1        -15.5570  -23.6800  -17.7630 H     2801  TIP2790     0.2052
   8566 H2        -15.5120  -25.0790  -17.1850 H     2801  TIP2790     0.2052
   8567 OH2        -7.8390    2.0540  -21.5270 O.3   2802  TIP2791    -0.4105
   8568 H1         -7.5290    1.5420  -20.7790 H     2802  TIP2791     0.2052
   8569 H2         -7.0450    2.2730  -22.0130 H     2802  TIP2791     0.2052
   8570 OH2        11.9390   17.0300    3.9010 O.3   2803  TIP2792    -0.4105
   8571 H1         11.9050   16.1230    3.5960 H     2803  TIP2792     0.2052
   8572 H2         12.8380   17.3080    3.7240 H     2803  TIP2792     0.2052
   8573 OH2         0.8860   21.0690   -7.2780 O.3   2804  TIP2793    -0.4105
   8574 H1          1.3160   20.5820   -6.5750 H     2804  TIP2793     0.2052
   8575 H2         -0.0390   20.8360   -7.2000 H     2804  TIP2793     0.2052
   8576 OH2         2.9540    1.5910   16.1390 O.3   2805  TIP2794    -0.4105
   8577 H1          3.4600    1.9980   15.4360 H     2805  TIP2794     0.2052
   8578 H2          3.5970    1.4120   16.8250 H     2805  TIP2794     0.2052
   8579 OH2        -1.7700  -15.8370    7.3180 O.3   2806  TIP2795    -0.4105
   8580 H1         -2.1860  -16.1040    6.4980 H     2806  TIP2795     0.2052
   8581 H2         -2.3940  -15.2310    7.7170 H     2806  TIP2795     0.2052
   8582 OH2        12.0670  -24.0750  -10.2350 O.3   2807  TIP2796    -0.4105
   8583 H1         11.7680  -23.9290   -9.3370 H     2807  TIP2796     0.2052
   8584 H2         12.7710  -24.7180  -10.1520 H     2807  TIP2796     0.2052
   8585 OH2        -1.9150   -2.6940  -28.4050 O.3   2808  TIP2797    -0.4105
   8586 H1         -1.3140   -3.3610  -28.0730 H     2808  TIP2797     0.2052
   8587 H2         -1.3460   -1.9810  -28.6950 H     2808  TIP2797     0.2052
   8588 OH2        29.3180   12.9380    7.4960 O.3   2809  TIP2798    -0.4105
   8589 H1         29.4850   12.8190    8.4310 H     2809  TIP2798     0.2052
   8590 H2         30.1890   13.0270    7.1070 H     2809  TIP2798     0.2052
   8591 OH2        -6.0830   -7.8440    8.3750 O.3   2810  TIP2799    -0.4105
   8592 H1         -6.4000   -7.6150    9.2490 H     2810  TIP2799     0.2052
   8593 H2         -6.3880   -7.1300    7.8150 H     2810  TIP2799     0.2052
   8594 OH2        13.9990  -13.6880   19.3840 O.3   2811  TIP2800    -0.4105
   8595 H1         13.7970  -13.0270   20.0470 H     2811  TIP2800     0.2052
   8596 H2         14.9530  -13.6710   19.3110 H     2811  TIP2800     0.2052
   8597 OH2        10.7260   -1.2990   19.1570 O.3   2812  TIP2801    -0.4105
   8598 H1         10.1450   -0.5690   19.3710 H     2812  TIP2801     0.2052
   8599 H2         11.1080   -1.5550   19.9960 H     2812  TIP2801     0.2052
   8600 OH2       -18.6330    6.3140   17.2140 O.3   2813  TIP2802    -0.4105
   8601 H1        -17.7640    6.6990   17.1020 H     2813  TIP2802     0.2052
   8602 H2        -18.8100    5.8760   16.3810 H     2813  TIP2802     0.2052
   8603 OH2         7.0620  -12.5460   -3.1470 O.3   2814  TIP2803    -0.4105
   8604 H1          7.4700  -12.4750   -2.2840 H     2814  TIP2803     0.2052
   8605 H2          6.5930  -11.7190   -3.2580 H     2814  TIP2803     0.2052
   8606 OH2         9.7330  -29.4740    6.2530 O.3   2815  TIP2804    -0.4105
   8607 H1          9.1210  -30.0170    6.7500 H     2815  TIP2804     0.2052
   8608 H2          9.2260  -28.6970    6.0160 H     2815  TIP2804     0.2052
   8609 OH2       -10.6930  -20.4060   -4.0510 O.3   2816  TIP2805    -0.4105
   8610 H1        -10.6200  -20.7260   -4.9500 H     2816  TIP2805     0.2052
   8611 H2        -11.4280  -19.7940   -4.0720 H     2816  TIP2805     0.2052
   8612 OH2       -13.4390   16.6820   13.6770 O.3   2817  TIP2806    -0.4105
   8613 H1        -12.7100   16.4610   14.2570 H     2817  TIP2806     0.2052
   8614 H2        -13.8560   15.8420   13.4860 H     2817  TIP2806     0.2052
   8615 OH2        35.0830   -4.8820   -5.7620 O.3   2818  TIP2807    -0.4105
   8616 H1         35.9480   -4.6400   -5.4310 H     2818  TIP2807     0.2052
   8617 H2         34.5270   -4.1320   -5.5490 H     2818  TIP2807     0.2052
   8618 OH2        -4.3560   19.2600  -25.8410 O.3   2819  TIP2808    -0.4105
   8619 H1         -3.8300   19.0410  -25.0720 H     2819  TIP2808     0.2052
   8620 H2         -4.1130   20.1630  -26.0480 H     2819  TIP2808     0.2052
   8621 OH2        -1.3730   -4.8590   18.0640 O.3   2820  TIP2809    -0.4105
   8622 H1         -1.5870   -5.6450   17.5610 H     2820  TIP2809     0.2052
   8623 H2         -2.1400   -4.7110   18.6170 H     2820  TIP2809     0.2052
   8624 OH2        -2.4110  -11.0440  -10.9280 O.3   2821  TIP2810    -0.4105
   8625 H1         -2.0510  -10.2450  -10.5420 H     2821  TIP2810     0.2052
   8626 H2         -2.0300  -11.0790  -11.8050 H     2821  TIP2810     0.2052
   8627 OH2       -14.2000   25.2960   10.1910 O.3   2822  TIP2811    -0.4105
   8628 H1        -13.3910   24.7900   10.1210 H     2822  TIP2811     0.2052
   8629 H2        -14.3720   25.3450   11.1310 H     2822  TIP2811     0.2052
   8630 OH2       -16.3560   14.4010   -1.2790 O.3   2823  TIP2812    -0.4105
   8631 H1        -16.9710   14.7060   -0.6130 H     2823  TIP2812     0.2052
   8632 H2        -16.5120   14.9730   -2.0310 H     2823  TIP2812     0.2052
   8633 OH2        -7.2010    9.4710    8.4010 O.3   2824  TIP2813    -0.4105
   8634 H1         -7.3790    8.7090    7.8490 H     2824  TIP2813     0.2052
   8635 H2         -7.9340   10.0640    8.2350 H     2824  TIP2813     0.2052
   8636 OH2        30.9290   -8.2030   -0.6790 O.3   2825  TIP2814    -0.4105
   8637 H1         30.7420   -7.2700   -0.5750 H     2825  TIP2814     0.2052
   8638 H2         31.8360   -8.2990   -0.3910 H     2825  TIP2814     0.2052
   8639 OH2         6.3200  -20.7950   24.1950 O.3   2826  TIP2815    -0.4105
   8640 H1          7.1330  -21.2880   24.0910 H     2826  TIP2815     0.2052
   8641 H2          5.8690  -20.8970   23.3570 H     2826  TIP2815     0.2052
   8642 OH2       -10.5710  -14.5180   22.7010 O.3   2827  TIP2816    -0.4105
   8643 H1        -10.2270  -15.3880   22.9050 H     2827  TIP2816     0.2052
   8644 H2         -9.8540  -14.0760   22.2470 H     2827  TIP2816     0.2052
   8645 OH2       -23.7060  -17.1310  -11.0230 O.3   2828  TIP2817    -0.4105
   8646 H1        -24.5790  -16.9130  -10.6960 H     2828  TIP2817     0.2052
   8647 H2        -23.7990  -18.0110  -11.3870 H     2828  TIP2817     0.2052
   8648 OH2        22.4860   -8.6680   -0.6720 O.3   2829  TIP2818    -0.4105
   8649 H1         22.4170   -9.1410   -1.5020 H     2829  TIP2818     0.2052
   8650 H2         22.9560   -9.2680   -0.0930 H     2829  TIP2818     0.2052
   8651 OH2       -19.8540  -12.9190   21.9140 O.3   2830  TIP2819    -0.4105
   8652 H1        -19.8240  -13.2140   21.0040 H     2830  TIP2819     0.2052
   8653 H2        -19.3080  -12.1330   21.9290 H     2830  TIP2819     0.2052
   8654 OH2        18.7830   17.3370  -14.0180 O.3   2831  TIP2820    -0.4105
   8655 H1         17.9560   17.7990  -14.1550 H     2831  TIP2820     0.2052
   8656 H2         18.5300   16.4230  -13.8920 H     2831  TIP2820     0.2052
   8657 OH2         2.9110   15.4720   25.6400 O.3   2832  TIP2821    -0.4105
   8658 H1          2.4750   16.1930   25.1850 H     2832  TIP2821     0.2052
   8659 H2          2.2120   14.8420   25.8160 H     2832  TIP2821     0.2052
   8660 OH2        -0.8340  -11.8900   -7.4580 O.3   2833  TIP2822    -0.4105
   8661 H1         -0.6510  -11.8140   -6.5210 H     2833  TIP2822     0.2052
   8662 H2         -1.6010  -12.4600   -7.5070 H     2833  TIP2822     0.2052
   8663 OH2        15.9600   14.6840   -3.5500 O.3   2834  TIP2823    -0.4105
   8664 H1         15.3860   14.0050   -3.1940 H     2834  TIP2823     0.2052
   8665 H2         15.4210   15.1390   -4.1960 H     2834  TIP2823     0.2052
   8666 OH2        -3.6720   24.1390  -24.1410 O.3   2835  TIP2824    -0.4105
   8667 H1         -3.5100   23.6320  -23.3450 H     2835  TIP2824     0.2052
   8668 H2         -3.8880   23.4830  -24.8040 H     2835  TIP2824     0.2052
   8669 OH2        -9.3610   24.5630  -14.2950 O.3   2836  TIP2825    -0.4105
   8670 H1         -9.9710   24.3160  -13.6000 H     2836  TIP2825     0.2052
   8671 H2         -9.8300   24.3700  -15.1060 H     2836  TIP2825     0.2052
   8672 OH2         1.6010    0.9770  -16.5780 O.3   2837  TIP2826    -0.4105
   8673 H1          1.4210    1.8820  -16.3260 H     2837  TIP2826     0.2052
   8674 H2          0.9710    0.7930  -17.2760 H     2837  TIP2826     0.2052
   8675 OH2        -1.0180  -16.4180   27.4970 O.3   2838  TIP2827    -0.4105
   8676 H1         -1.3900  -15.9160   28.2220 H     2838  TIP2827     0.2052
   8677 H2         -1.6280  -16.2820   26.7720 H     2838  TIP2827     0.2052
   8678 OH2         9.1680  -13.9220  -15.2060 O.3   2839  TIP2828    -0.4105
   8679 H1          9.0620  -14.8210  -15.5160 H     2839  TIP2828     0.2052
   8680 H2          9.9120  -13.9620  -14.6050 H     2839  TIP2828     0.2052
   8681 OH2        -0.1570   26.5330   -2.1690 O.3   2840  TIP2829    -0.4105
   8682 H1         -1.0940   26.3660   -2.0680 H     2840  TIP2829     0.2052
   8683 H2          0.2150   25.6810   -2.3950 H     2840  TIP2829     0.2052
   8684 OH2        31.4930    9.7180    5.1510 O.3   2841  TIP2830    -0.4105
   8685 H1         31.1090    9.1720    4.4650 H     2841  TIP2830     0.2052
   8686 H2         32.2370    9.2100    5.4740 H     2841  TIP2830     0.2052
   8687 OH2        18.0890   -2.8790   -1.0140 O.3   2842  TIP2831    -0.4105
   8688 H1         18.4430   -2.8500   -0.1250 H     2842  TIP2831     0.2052
   8689 H2         18.2120   -3.7870   -1.2920 H     2842  TIP2831     0.2052
   8690 OH2        13.5910   -8.6280    7.0290 O.3   2843  TIP2832    -0.4105
   8691 H1         13.0890   -8.0860    7.6370 H     2843  TIP2832     0.2052
   8692 H2         13.8070   -9.4140    7.5300 H     2843  TIP2832     0.2052
   8693 OH2       -15.7450   -6.2820    7.6980 O.3   2844  TIP2833    -0.4105
   8694 H1        -16.1630   -6.0730    6.8630 H     2844  TIP2833     0.2052
   8695 H2        -14.8150   -6.3700    7.4860 H     2844  TIP2833     0.2052
   8696 OH2        -2.2530  -23.9030    5.8540 O.3   2845  TIP2834    -0.4105
   8697 H1         -2.5930  -24.7980    5.8490 H     2845  TIP2834     0.2052
   8698 H2         -2.3240  -23.6140    4.9440 H     2845  TIP2834     0.2052
   8699 OH2        10.6020   -9.1220   25.2910 O.3   2846  TIP2835    -0.4105
   8700 H1         10.8240  -10.0530   25.3140 H     2846  TIP2835     0.2052
   8701 H2          9.7970   -9.0550   25.8050 H     2846  TIP2835     0.2052
   8702 OH2         4.2750   11.0360    7.0830 O.3   2847  TIP2836    -0.4105
   8703 H1          3.3870   11.2870    6.8270 H     2847  TIP2836     0.2052
   8704 H2          4.3190   10.0960    6.9040 H     2847  TIP2836     0.2052
   8705 OH2       -10.6920   10.7520   12.4380 O.3   2848  TIP2837    -0.4105
   8706 H1        -10.4760   10.2610   11.6450 H     2848  TIP2837     0.2052
   8707 H2        -11.1210   10.1140   13.0080 H     2848  TIP2837     0.2052
   8708 OH2       -10.1080  -11.3250  -25.2130 O.3   2849  TIP2838    -0.4105
   8709 H1         -9.4380  -11.9650  -24.9750 H     2849  TIP2838     0.2052
   8710 H2         -9.6740  -10.7440  -25.8380 H     2849  TIP2838     0.2052
   8711 OH2        18.2950  -12.6580    4.2980 O.3   2850  TIP2839    -0.4105
   8712 H1         18.2400  -13.5410    4.6650 H     2850  TIP2839     0.2052
   8713 H2         19.0470  -12.2620    4.7380 H     2850  TIP2839     0.2052
   8714 OH2        -9.4400   30.7740    3.0280 O.3   2851  TIP2840    -0.4105
   8715 H1        -10.0380   30.5340    3.7370 H     2851  TIP2840     0.2052
   8716 H2         -8.6390   31.0500    3.4730 H     2851  TIP2840     0.2052
   8717 OH2       -17.8260  -18.2410  -18.6030 O.3   2852  TIP2841    -0.4105
   8718 H1        -18.6390  -18.2250  -18.0970 H     2852  TIP2841     0.2052
   8719 H2        -17.9640  -18.9270  -19.2560 H     2852  TIP2841     0.2052
   8720 OH2        -2.5730    0.1210   32.2800 O.3   2853  TIP2842    -0.4105
   8721 H1         -2.8040   -0.2290   33.1400 H     2853  TIP2842     0.2052
   8722 H2         -3.3130   -0.1100   31.7200 H     2853  TIP2842     0.2052
   8723 OH2        -5.8620   25.6800  -11.5830 O.3   2854  TIP2843    -0.4105
   8724 H1         -6.7620   25.8160  -11.8800 H     2854  TIP2843     0.2052
   8725 H2         -5.6380   24.8020  -11.8910 H     2854  TIP2843     0.2052
   8726 OH2        -1.2570    3.1280   -4.4110 O.3   2855  TIP2844    -0.4105
   8727 H1         -2.1550    2.8580   -4.2170 H     2855  TIP2844     0.2052
   8728 H2         -0.8140    3.1170   -3.5630 H     2855  TIP2844     0.2052
   8729 OH2       -16.6750    2.0320  -15.6120 O.3   2856  TIP2845    -0.4105
   8730 H1        -16.3610    1.5190  -14.8670 H     2856  TIP2845     0.2052
   8731 H2        -16.1530    2.8340  -15.5880 H     2856  TIP2845     0.2052
   8732 OH2       -16.9410   25.0200    9.2360 O.3   2857  TIP2846    -0.4105
   8733 H1        -16.0270   25.3010    9.2690 H     2857  TIP2846     0.2052
   8734 H2        -17.3800   25.5500    9.9010 H     2857  TIP2846     0.2052
   8735 OH2        -2.8790  -17.8250   38.8990 O.3   2858  TIP2847    -0.4105
   8736 H1         -2.3560  -18.1610   38.1710 H     2858  TIP2847     0.2052
   8737 H2         -3.7840  -18.0050   38.6470 H     2858  TIP2847     0.2052
   8738 OH2        13.2570  -20.9190   10.1100 O.3   2859  TIP2848    -0.4105
   8739 H1         12.7850  -20.1000   10.2600 H     2859  TIP2848     0.2052
   8740 H2         13.2050  -21.3820   10.9460 H     2859  TIP2848     0.2052
   8741 OH2       -24.5310   18.8450    2.6120 O.3   2860  TIP2849    -0.4105
   8742 H1        -23.8050   19.0050    3.2140 H     2860  TIP2849     0.2052
   8743 H2        -24.1700   18.2550    1.9510 H     2860  TIP2849     0.2052
   8744 OH2        10.2690    3.2900   -3.8650 O.3   2861  TIP2850    -0.4105
   8745 H1         11.0920    2.8050   -3.7930 H     2861  TIP2850     0.2052
   8746 H2          9.6040    2.6820   -3.5430 H     2861  TIP2850     0.2052
   8747 OH2       -14.4210  -23.3950   -6.8210 O.3   2862  TIP2851    -0.4105
   8748 H1        -14.3570  -22.4440   -6.9000 H     2862  TIP2851     0.2052
   8749 H2        -14.8430  -23.5380   -5.9740 H     2862  TIP2851     0.2052
   8750 OH2       -11.1620    4.0440  -16.3550 O.3   2863  TIP2852    -0.4105
   8751 H1        -10.8680    4.3920  -15.5130 H     2863  TIP2852     0.2052
   8752 H2        -11.8350    4.6590  -16.6460 H     2863  TIP2852     0.2052
   8753 OH2        -7.1380  -21.1500   -3.7690 O.3   2864  TIP2853    -0.4105
   8754 H1         -7.3010  -21.1100   -4.7110 H     2864  TIP2853     0.2052
   8755 H2         -7.7440  -21.8180   -3.4490 H     2864  TIP2853     0.2052
   8756 OH2       -22.5590   16.6520    6.7600 O.3   2865  TIP2854    -0.4105
   8757 H1        -22.2480   15.8180    7.1100 H     2865  TIP2854     0.2052
   8758 H2        -23.3020   16.8840    7.3180 H     2865  TIP2854     0.2052
   8759 OH2         4.9840    2.9780   15.0160 O.3   2866  TIP2855    -0.4105
   8760 H1          4.9450    3.9030   14.7710 H     2866  TIP2855     0.2052
   8761 H2          5.7480    2.6390   14.5490 H     2866  TIP2855     0.2052
   8762 OH2        12.1080  -29.1570   -1.5220 O.3   2867  TIP2856    -0.4105
   8763 H1         11.8120  -30.0220   -1.8040 H     2867  TIP2856     0.2052
   8764 H2         12.6850  -29.3310   -0.7780 H     2867  TIP2856     0.2052
   8765 OH2        -6.9090  -19.6620   -9.1030 O.3   2868  TIP2857    -0.4105
   8766 H1         -7.7310  -19.9460   -9.5030 H     2868  TIP2857     0.2052
   8767 H2         -7.0810  -18.7680   -8.8080 H     2868  TIP2857     0.2052
   8768 OH2         1.1460  -13.9830   28.1030 O.3   2869  TIP2858    -0.4105
   8769 H1          0.3460  -14.0800   27.5860 H     2869  TIP2858     0.2052
   8770 H2          0.8600  -14.0850   29.0100 H     2869  TIP2858     0.2052
   8771 OH2        11.5970  -25.7800    7.5450 O.3   2870  TIP2859    -0.4105
   8772 H1         11.5860  -25.4120    8.4290 H     2870  TIP2859     0.2052
   8773 H2         10.8140  -25.4220    7.1260 H     2870  TIP2859     0.2052
   8774 OH2        17.9690   11.5100   -1.7320 O.3   2871  TIP2860    -0.4105
   8775 H1         17.8820   10.8430   -1.0510 H     2871  TIP2860     0.2052
   8776 H2         17.3990   12.2230   -1.4440 H     2871  TIP2860     0.2052
   8777 OH2       -22.5100   -8.0700    3.3230 O.3   2872  TIP2861    -0.4105
   8778 H1        -21.7880   -8.5090    2.8730 H     2872  TIP2861     0.2052
   8779 H2        -22.8060   -8.7050    3.9760 H     2872  TIP2861     0.2052
   8780 OH2        -4.2500   -0.3910   12.4230 O.3   2873  TIP2862    -0.4105
   8781 H1         -3.5300    0.0580   11.9800 H     2873  TIP2862     0.2052
   8782 H2         -4.2520   -0.0270   13.3080 H     2873  TIP2862     0.2052
   8783 OH2       -21.5350   -7.1950   20.3790 O.3   2874  TIP2863    -0.4105
   8784 H1        -21.7650   -7.3830   21.2900 H     2874  TIP2863     0.2052
   8785 H2        -21.0150   -6.3920   20.4240 H     2874  TIP2863     0.2052
   8786 OH2        17.9130  -32.9820    9.0930 O.3   2875  TIP2864    -0.4105
   8787 H1         17.0080  -32.9620    9.4040 H     2875  TIP2864     0.2052
   8788 H2         18.1490  -32.0610    8.9840 H     2875  TIP2864     0.2052
   8789 OH2        12.4080   -4.0800    4.5090 O.3   2876  TIP2865    -0.4105
   8790 H1         12.4590   -3.3510    5.1270 H     2876  TIP2865     0.2052
   8791 H2         13.3050   -4.1880    4.1910 H     2876  TIP2865     0.2052
   8792 OH2        13.0010  -16.2190  -11.7970 O.3   2877  TIP2866    -0.4105
   8793 H1         13.7530  -15.6660  -11.5860 H     2877  TIP2866     0.2052
   8794 H2         13.3810  -16.9860  -12.2250 H     2877  TIP2866     0.2052
   8795 OH2       -27.6310   -2.1460    9.4700 O.3   2878  TIP2867    -0.4105
   8796 H1        -27.2900   -2.5050    8.6510 H     2878  TIP2867     0.2052
   8797 H2        -27.8460   -2.9150    9.9980 H     2878  TIP2867     0.2052
   8798 OH2         8.9320   10.2640   21.9650 O.3   2879  TIP2868    -0.4105
   8799 H1          8.8690   10.1610   22.9150 H     2879  TIP2868     0.2052
   8800 H2          8.4550   11.0720   21.7790 H     2879  TIP2868     0.2052
   8801 OH2       -29.7460  -11.3550   -4.5850 O.3   2880  TIP2869    -0.4105
   8802 H1        -29.6860  -10.7500   -5.3240 H     2880  TIP2869     0.2052
   8803 H2        -29.7510  -10.7900   -3.8120 H     2880  TIP2869     0.2052
   8804 OH2       -22.3940  -17.4200   -6.1130 O.3   2881  TIP2870    -0.4105
   8805 H1        -22.2580  -16.9540   -6.9380 H     2881  TIP2870     0.2052
   8806 H2        -21.5120  -17.6470   -5.8170 H     2881  TIP2870     0.2052
   8807 OH2        -9.2200   25.0530    8.6440 O.3   2882  TIP2871    -0.4105
   8808 H1         -8.3610   25.4500    8.7870 H     2882  TIP2871     0.2052
   8809 H2         -9.3110   25.0140    7.6920 H     2882  TIP2871     0.2052
   8810 OH2        -9.2660  -17.2330  -11.3070 O.3   2883  TIP2872    -0.4105
   8811 H1        -10.2010  -17.0450  -11.3920 H     2883  TIP2872     0.2052
   8812 H2         -9.1830  -18.1540  -11.5540 H     2883  TIP2872     0.2052
   8813 OH2         0.1630  -23.1940    6.8710 O.3   2884  TIP2873    -0.4105
   8814 H1          0.0360  -22.2460    6.8470 H     2884  TIP2873     0.2052
   8815 H2         -0.5710  -23.5480    6.3690 H     2884  TIP2873     0.2052
   8816 OH2         1.2470  -23.9740   21.6150 O.3   2885  TIP2874    -0.4105
   8817 H1          1.1230  -23.0600   21.3600 H     2885  TIP2874     0.2052
   8818 H2          1.6500  -23.9290   22.4820 H     2885  TIP2874     0.2052
   8819 OH2       -20.0630   31.2150   -3.2600 O.3   2886  TIP2875    -0.4105
   8820 H1        -20.7460   31.8640   -3.4280 H     2886  TIP2875     0.2052
   8821 H2        -19.5020   31.6220   -2.6000 H     2886  TIP2875     0.2052
   8822 OH2         8.0740    3.7010  -14.9180 O.3   2887  TIP2876    -0.4105
   8823 H1          8.4830    3.5390  -15.7680 H     2887  TIP2876     0.2052
   8824 H2          7.8910    2.8280  -14.5690 H     2887  TIP2876     0.2052
   8825 OH2        10.9270   18.0830   -7.6370 O.3   2888  TIP2877    -0.4105
   8826 H1         10.4870   18.6240   -6.9820 H     2888  TIP2877     0.2052
   8827 H2         11.1640   17.2830   -7.1680 H     2888  TIP2877     0.2052
   8828 OH2         5.9350    0.5270   26.3730 O.3   2889  TIP2878    -0.4105
   8829 H1          6.7430    0.3830   26.8660 H     2889  TIP2878     0.2052
   8830 H2          5.7190    1.4460   26.5300 H     2889  TIP2878     0.2052
   8831 OH2        18.0870    4.7170   16.9230 O.3   2890  TIP2879    -0.4105
   8832 H1         17.1330    4.7160   16.8460 H     2890  TIP2879     0.2052
   8833 H2         18.3120    5.6290   17.1070 H     2890  TIP2879     0.2052
   8834 OH2         9.3590   16.1610    7.2830 O.3   2891  TIP2880    -0.4105
   8835 H1          8.4340   16.2710    7.5020 H     2891  TIP2880     0.2052
   8836 H2          9.5400   16.8570    6.6510 H     2891  TIP2880     0.2052
   8837 OH2       -12.6950   30.7250    3.1560 O.3   2892  TIP2881    -0.4105
   8838 H1        -12.2410   31.5650    3.0880 H     2892  TIP2881     0.2052
   8839 H2        -12.3660   30.2150    2.4150 H     2892  TIP2881     0.2052
   8840 OH2         5.8300    8.4500  -26.5720 O.3   2893  TIP2882    -0.4105
   8841 H1          6.7380    8.2430  -26.3500 H     2893  TIP2882     0.2052
   8842 H2          5.3540    7.6330  -26.4230 H     2893  TIP2882     0.2052
   8843 OH2       -27.4970   -8.4770    0.2360 O.3   2894  TIP2883    -0.4105
   8844 H1        -28.0190   -8.9300   -0.4270 H     2894  TIP2883     0.2052
   8845 H2        -27.7220   -7.5530    0.1280 H     2894  TIP2883     0.2052
   8846 OH2         0.2010    0.1230   16.0680 O.3   2895  TIP2884    -0.4105
   8847 H1         -0.3580    0.8360   16.3780 H     2895  TIP2884     0.2052
   8848 H2          1.0840    0.4920   16.0720 H     2895  TIP2884     0.2052
   8849 OH2         7.2810  -22.2960   -6.1610 O.3   2896  TIP2885    -0.4105
   8850 H1          7.8660  -22.7490   -6.7690 H     2896  TIP2885     0.2052
   8851 H2          6.6100  -21.9040   -6.7210 H     2896  TIP2885     0.2052
   8852 OH2        -8.3300   11.8850   -4.8870 O.3   2897  TIP2886    -0.4105
   8853 H1         -8.9990   11.3280   -4.4910 H     2897  TIP2886     0.2052
   8854 H2         -7.6610   11.9770   -4.2070 H     2897  TIP2886     0.2052
   8855 OH2       -13.6470   11.5990   -8.7620 O.3   2898  TIP2887    -0.4105
   8856 H1        -13.2840   12.0970   -8.0290 H     2898  TIP2887     0.2052
   8857 H2        -14.1970   10.9330   -8.3500 H     2898  TIP2887     0.2052
   8858 OH2       -13.7400   -8.1350   20.9090 O.3   2899  TIP2888    -0.4105
   8859 H1        -13.6530   -7.6740   20.0750 H     2899  TIP2888     0.2052
   8860 H2        -12.8530   -8.1490   21.2690 H     2899  TIP2888     0.2052
   8861 OH2       -27.6590  -15.7870   -1.2330 O.3   2900  TIP2889    -0.4105
   8862 H1        -26.7470  -16.0800   -1.2370 H     2900  TIP2889     0.2052
   8863 H2        -27.8550  -15.6270   -0.3100 H     2900  TIP2889     0.2052
   8864 OH2         8.7490  -21.4050   19.6620 O.3   2901  TIP2890    -0.4105
   8865 H1          9.0240  -22.2610   19.3330 H     2901  TIP2890     0.2052
   8866 H2          7.8190  -21.5110   19.8590 H     2901  TIP2890     0.2052
   8867 OH2        -9.5780    3.6300    1.0930 O.3   2902  TIP2891    -0.4105
   8868 H1         -9.6210    2.6740    1.0880 H     2902  TIP2891     0.2052
   8869 H2         -8.7960    3.8380    0.5810 H     2902  TIP2891     0.2052
   8870 OH2       -17.9400  -14.8190   10.2500 O.3   2903  TIP2892    -0.4105
   8871 H1        -18.8480  -14.5410   10.1340 H     2903  TIP2892     0.2052
   8872 H2        -17.4610  -14.0090   10.4260 H     2903  TIP2892     0.2052
   8873 OH2       -18.7220  -15.4870  -16.5000 O.3   2904  TIP2893    -0.4105
   8874 H1        -19.2220  -15.9810  -15.8510 H     2904  TIP2893     0.2052
   8875 H2        -17.8160  -15.7640  -16.3680 H     2904  TIP2893     0.2052
   8876 OH2        16.2750   -9.9440   -8.0740 O.3   2905  TIP2894    -0.4105
   8877 H1         15.5810  -10.4610   -7.6640 H     2905  TIP2894     0.2052
   8878 H2         15.8410   -9.1360   -8.3510 H     2905  TIP2894     0.2052
   8879 OH2        22.5640  -36.0250    2.3900 O.3   2906  TIP2895    -0.4105
   8880 H1         21.6930  -36.1830    2.0270 H     2906  TIP2895     0.2052
   8881 H2         22.9940  -35.4630    1.7450 H     2906  TIP2895     0.2052
   8882 OH2       -33.1990    2.6380    4.8850 O.3   2907  TIP2896    -0.4105
   8883 H1        -33.1830    3.5360    5.2140 H     2907  TIP2896     0.2052
   8884 H2        -33.9040    2.2150    5.3760 H     2907  TIP2896     0.2052
   8885 OH2        25.2510   14.4630   -3.7290 O.3   2908  TIP2897    -0.4105
   8886 H1         24.6770   14.9960   -4.2790 H     2908  TIP2897     0.2052
   8887 H2         25.8380   14.0270   -4.3460 H     2908  TIP2897     0.2052
   8888 OH2        20.3710  -18.3530    9.8400 O.3   2909  TIP2898    -0.4105
   8889 H1         20.6350  -17.5000   10.1850 H     2909  TIP2898     0.2052
   8890 H2         21.1340  -18.9150    9.9780 H     2909  TIP2898     0.2052
   8891 OH2         2.0560  -27.1510    8.6980 O.3   2910  TIP2899    -0.4105
   8892 H1          2.9020  -27.3390    8.2920 H     2910  TIP2899     0.2052
   8893 H2          1.5440  -26.7340    8.0040 H     2910  TIP2899     0.2052
   8894 OH2         0.6420  -14.8490   21.0640 O.3   2911  TIP2900    -0.4105
   8895 H1          0.3840  -15.2020   21.9150 H     2911  TIP2900     0.2052
   8896 H2          0.1910  -15.4040   20.4270 H     2911  TIP2900     0.2052
   8897 OH2         4.5990   15.7630  -29.2350 O.3   2912  TIP2901    -0.4105
   8898 H1          3.9910   15.5960  -28.5140 H     2912  TIP2901     0.2052
   8899 H2          5.0410   16.5770  -28.9930 H     2912  TIP2901     0.2052
   8900 OH2        -2.7220  -16.0900    4.8380 O.3   2913  TIP2902    -0.4105
   8901 H1         -3.0350  -16.9340    4.5130 H     2913  TIP2902     0.2052
   8902 H2         -1.7690  -16.1780    4.8590 H     2913  TIP2902     0.2052
   8903 OH2        -7.2210   22.9620  -24.5870 O.3   2914  TIP2903    -0.4105
   8904 H1         -7.6640   22.2870  -24.0730 H     2914  TIP2903     0.2052
   8905 H2         -7.2410   23.7400  -24.0300 H     2914  TIP2903     0.2052
   8906 OH2        -4.9260  -25.1550    4.6890 O.3   2915  TIP2904    -0.4105
   8907 H1         -5.5440  -24.5570    5.1080 H     2915  TIP2904     0.2052
   8908 H2         -4.8570  -24.8360    3.7890 H     2915  TIP2904     0.2052
   8909 OH2        20.2890   12.1850   -2.7200 O.3   2916  TIP2905    -0.4105
   8910 H1         19.3650   12.4240   -2.6410 H     2916  TIP2905     0.2052
   8911 H2         20.3360   11.2930   -2.3750 H     2916  TIP2905     0.2052
   8912 OH2         7.2170   10.3770    6.9980 O.3   2917  TIP2906    -0.4105
   8913 H1          7.3890    9.9550    7.8400 H     2917  TIP2906     0.2052
   8914 H2          6.2950   10.6280    7.0390 H     2917  TIP2906     0.2052
   8915 OH2        -7.1290   15.1570  -21.0800 O.3   2918  TIP2907    -0.4105
   8916 H1         -7.6340   15.0150  -20.2790 H     2918  TIP2907     0.2052
   8917 H2         -6.3280   15.5900  -20.7840 H     2918  TIP2907     0.2052
   8918 OH2        22.7720    3.3400   -6.5290 O.3   2919  TIP2908    -0.4105
   8919 H1         22.3110    3.9790   -5.9860 H     2919  TIP2908     0.2052
   8920 H2         22.3760    3.4310   -7.3950 H     2919  TIP2908     0.2052
   8921 OH2        -6.8110   27.2130    1.7800 O.3   2920  TIP2909    -0.4105
   8922 H1         -7.6210   27.6530    2.0390 H     2920  TIP2909     0.2052
   8923 H2         -6.2830   27.9010    1.3750 H     2920  TIP2909     0.2052
   8924 OH2       -13.6160  -14.7510   19.2740 O.3   2921  TIP2910    -0.4105
   8925 H1        -13.4650  -15.3960   19.9650 H     2921  TIP2910     0.2052
   8926 H2        -12.8660  -14.1590   19.3300 H     2921  TIP2910     0.2052
   8927 OH2       -22.7830   14.5360   -5.4470 O.3   2922  TIP2911    -0.4105
   8928 H1        -23.2920   13.7670   -5.7010 H     2922  TIP2911     0.2052
   8929 H2        -23.4010   15.0830   -4.9610 H     2922  TIP2911     0.2052
   8930 OH2        28.8860   -9.9150   -7.4990 O.3   2923  TIP2912    -0.4105
   8931 H1         28.9200   -9.3860   -6.7020 H     2923  TIP2912     0.2052
   8932 H2         29.5490  -10.5930   -7.3650 H     2923  TIP2912     0.2052
   8933 OH2         6.6550  -27.2840   -4.2000 O.3   2924  TIP2913    -0.4105
   8934 H1          6.4600  -26.4310   -4.5880 H     2924  TIP2913     0.2052
   8935 H2          7.5840  -27.4230   -4.3810 H     2924  TIP2913     0.2052
   8936 OH2        23.6220    6.4030    3.1620 O.3   2925  TIP2914    -0.4105
   8937 H1         23.0300    5.9630    2.5520 H     2925  TIP2914     0.2052
   8938 H2         23.7940    7.2530    2.7580 H     2925  TIP2914     0.2052
   8939 OH2        13.0600   -6.8280  -11.0460 O.3   2926  TIP2915    -0.4105
   8940 H1         12.7080   -6.8740  -10.1570 H     2926  TIP2915     0.2052
   8941 H2         12.4280   -6.2940  -11.5270 H     2926  TIP2915     0.2052
   8942 OH2        -9.9150  -16.4770   -6.6120 O.3   2927  TIP2916    -0.4105
   8943 H1        -10.6340  -15.9210   -6.9120 H     2927  TIP2916     0.2052
   8944 H2        -10.1750  -16.7530   -5.7330 H     2927  TIP2916     0.2052
   8945 OH2       -11.8370   28.3520  -12.2200 O.3   2928  TIP2917    -0.4105
   8946 H1        -12.5950   28.0520  -11.7180 H     2928  TIP2917     0.2052
   8947 H2        -11.2170   28.6580  -11.5580 H     2928  TIP2917     0.2052
   8948 OH2        -4.6330   16.0290  -20.1910 O.3   2929  TIP2918    -0.4105
   8949 H1         -4.1140   16.6910  -19.7340 H     2929  TIP2918     0.2052
   8950 H2         -4.6440   15.2800  -19.5960 H     2929  TIP2918     0.2052
   8951 OH2         2.6930   -7.5150   13.6710 O.3   2930  TIP2919    -0.4105
   8952 H1          3.6500   -7.4930   13.7060 H     2930  TIP2919     0.2052
   8953 H2          2.4860   -7.4530   12.7380 H     2930  TIP2919     0.2052
   8954 OH2       -14.7000   -3.8740   -9.7020 O.3   2931  TIP2920    -0.4105
   8955 H1        -13.8260   -3.6500  -10.0210 H     2931  TIP2920     0.2052
   8956 H2        -14.6340   -4.7940   -9.4470 H     2931  TIP2920     0.2052
   8957 OH2         7.6440  -17.0420    8.4100 O.3   2932  TIP2921    -0.4105
   8958 H1          7.3430  -17.5000    9.1950 H     2932  TIP2921     0.2052
   8959 H2          8.5660  -16.8510    8.5820 H     2932  TIP2921     0.2052
   8960 OH2        -3.1550  -24.5560   15.2530 O.3   2933  TIP2922    -0.4105
   8961 H1         -2.5440  -24.0680   15.8060 H     2933  TIP2922     0.2052
   8962 H2         -3.4560  -25.2770   15.8050 H     2933  TIP2922     0.2052
   8963 OH2        14.7340  -14.1770  -10.7070 O.3   2934  TIP2923    -0.4105
   8964 H1         14.6490  -14.7640   -9.9570 H     2934  TIP2923     0.2052
   8965 H2         13.9050  -13.7000  -10.7350 H     2934  TIP2923     0.2052
   8966 OH2        -6.3500  -16.2400   34.4900 O.3   2935  TIP2924    -0.4105
   8967 H1         -6.6050  -15.7860   33.6860 H     2935  TIP2924     0.2052
   8968 H2         -7.0790  -16.8330   34.6720 H     2935  TIP2924     0.2052
   8969 OH2        -5.3980    4.5040   21.1220 O.3   2936  TIP2925    -0.4105
   8970 H1         -5.7340    3.9510   20.4170 H     2936  TIP2925     0.2052
   8971 H2         -4.9090    3.9040   21.6860 H     2936  TIP2925     0.2052
   8972 OH2         7.7870  -14.9720   10.6220 O.3   2937  TIP2926    -0.4105
   8973 H1          7.4470  -14.7450    9.7570 H     2937  TIP2926     0.2052
   8974 H2          7.3610  -15.8020   10.8380 H     2937  TIP2926     0.2052
   8975 OH2        -9.6790  -21.6930    9.9030 O.3   2938  TIP2927    -0.4105
   8976 H1         -9.8910  -22.4510   10.4480 H     2938  TIP2927     0.2052
   8977 H2         -9.5540  -22.0550    9.0260 H     2938  TIP2927     0.2052
   8978 OH2         7.7270   15.2310  -27.4660 O.3   2939  TIP2928    -0.4105
   8979 H1          7.3410   14.4870  -27.9270 H     2939  TIP2928     0.2052
   8980 H2          7.1780   15.9760  -27.7100 H     2939  TIP2928     0.2052
   8981 OH2        -3.8780    4.3380   -9.8030 O.3   2940  TIP2929    -0.4105
   8982 H1         -2.9540    4.4340  -10.0360 H     2940  TIP2929     0.2052
   8983 H2         -4.3460    4.4430  -10.6310 H     2940  TIP2929     0.2052
   8984 OH2         5.5690   10.1060  -24.0550 O.3   2941  TIP2930    -0.4105
   8985 H1          5.3620    9.7680  -24.9270 H     2941  TIP2930     0.2052
   8986 H2          5.2410    9.4380  -23.4540 H     2941  TIP2930     0.2052
   8987 OH2        -6.6080   18.2530  -24.5330 O.3   2942  TIP2931    -0.4105
   8988 H1         -5.8480   18.3360  -25.1090 H     2942  TIP2931     0.2052
   8989 H2         -6.3020   18.5740  -23.6850 H     2942  TIP2931     0.2052
   8990 OH2         8.6380   -9.5820   18.3650 O.3   2943  TIP2932    -0.4105
   8991 H1          9.2110   -9.8900   19.0680 H     2943  TIP2932     0.2052
   8992 H2          8.7540  -10.2220   17.6630 H     2943  TIP2932     0.2052
   8993 OH2         9.4790   13.6990  -18.0550 O.3   2944  TIP2933    -0.4105
   8994 H1          9.8270   14.3930  -17.4950 H     2944  TIP2933     0.2052
   8995 H2          8.6100   13.5170  -17.6990 H     2944  TIP2933     0.2052
   8996 OH2       -13.1770  -25.6490  -23.5270 O.3   2945  TIP2934    -0.4105
   8997 H1        -13.4830  -26.4610  -23.1220 H     2945  TIP2934     0.2052
   8998 H2        -13.4610  -24.9600  -22.9270 H     2945  TIP2934     0.2052
   8999 OH2         0.2630    6.4910   14.3430 O.3   2946  TIP2935    -0.4105
   9000 H1          1.1840    6.3290   14.1370 H     2946  TIP2935     0.2052
   9001 H2         -0.1910    6.3910   13.5060 H     2946  TIP2935     0.2052
   9002 OH2       -26.1270   15.6830    1.9920 O.3   2947  TIP2936    -0.4105
   9003 H1        -26.2860   15.0940    1.2550 H     2947  TIP2936     0.2052
   9004 H2        -26.1910   16.5610    1.6160 H     2947  TIP2936     0.2052
   9005 OH2       -12.1750    2.2030   13.6560 O.3   2948  TIP2937    -0.4105
   9006 H1        -12.5170    2.3600   14.5370 H     2948  TIP2937     0.2052
   9007 H2        -11.5040    1.5310   13.7760 H     2948  TIP2937     0.2052
   9008 OH2         5.6400   -0.3970   32.8400 O.3   2949  TIP2938    -0.4105
   9009 H1          4.7630   -0.2030   32.5080 H     2949  TIP2938     0.2052
   9010 H2          6.0930    0.4450   32.8290 H     2949  TIP2938     0.2052
   9011 OH2       -12.9820    9.7570    5.3660 O.3   2950  TIP2939    -0.4105
   9012 H1        -13.7490    9.4800    5.8680 H     2950  TIP2939     0.2052
   9013 H2        -13.1090    9.3710    4.5000 H     2950  TIP2939     0.2052
   9014 OH2       -11.1730    1.6310   19.5840 O.3   2951  TIP2940    -0.4105
   9015 H1        -10.9420    2.0120   20.4310 H     2951  TIP2940     0.2052
   9016 H2        -11.9100    2.1580   19.2760 H     2951  TIP2940     0.2052
   9017 OH2       -18.3040   21.5260    8.9550 O.3   2952  TIP2941    -0.4105
   9018 H1        -17.7420   20.7590    8.8420 H     2952  TIP2941     0.2052
   9019 H2        -18.4200   21.6010    9.9020 H     2952  TIP2941     0.2052
   9020 OH2         8.3770  -18.1880   26.0960 O.3   2953  TIP2942    -0.4105
   9021 H1          8.1690  -17.8740   26.9770 H     2953  TIP2942     0.2052
   9022 H2          9.0110  -18.8910   26.2360 H     2953  TIP2942     0.2052
   9023 OH2        22.6760  -18.8840   -5.0460 O.3   2954  TIP2943    -0.4105
   9024 H1         22.3360  -19.7130   -5.3830 H     2954  TIP2943     0.2052
   9025 H2         22.8090  -19.0410   -4.1110 H     2954  TIP2943     0.2052
   9026 OH2       -26.0550    3.0250    4.2020 O.3   2955  TIP2944    -0.4105
   9027 H1        -27.0000    3.1150    4.3230 H     2955  TIP2944     0.2052
   9028 H2        -25.9640    2.4620    3.4330 H     2955  TIP2944     0.2052
   9029 OH2        -6.1050  -20.6470   26.1450 O.3   2956  TIP2945    -0.4105
   9030 H1         -5.2890  -20.4350   25.6910 H     2956  TIP2945     0.2052
   9031 H2         -6.7850  -20.2060   25.6360 H     2956  TIP2945     0.2052
   9032 OH2         6.0750   26.9720   10.5550 O.3   2957  TIP2946    -0.4105
   9033 H1          5.2660   26.9680   11.0680 H     2957  TIP2946     0.2052
   9034 H2          6.1370   27.8630   10.2120 H     2957  TIP2946     0.2052
   9035 OH2       -24.8540  -20.0090  -11.4120 O.3   2958  TIP2947    -0.4105
   9036 H1        -24.7580  -20.8620  -11.8350 H     2958  TIP2947     0.2052
   9037 H2        -25.7990  -19.8620  -11.3820 H     2958  TIP2947     0.2052
   9038 OH2       -12.3170  -15.4840  -17.7820 O.3   2959  TIP2948    -0.4105
   9039 H1        -12.1230  -14.5710  -17.5690 H     2959  TIP2948     0.2052
   9040 H2        -11.5150  -15.8100  -18.1920 H     2959  TIP2948     0.2052
   9041 OH2        -8.7920   21.1280  -23.1890 O.3   2960  TIP2949    -0.4105
   9042 H1         -8.7580   20.4970  -23.9080 H     2960  TIP2949     0.2052
   9043 H2         -9.2700   20.6760  -22.4940 H     2960  TIP2949     0.2052
   9044 OH2         9.2700  -13.2880   25.0280 O.3   2961  TIP2950    -0.4105
   9045 H1         10.0410  -13.4390   24.4800 H     2961  TIP2950     0.2052
   9046 H2          8.5310  -13.3400   24.4220 H     2961  TIP2950     0.2052
   9047 OH2       -14.2520   10.1390    9.6880 O.3   2962  TIP2951    -0.4105
   9048 H1        -14.7810   10.8480    9.3240 H     2962  TIP2951     0.2052
   9049 H2        -14.0730   10.4110   10.5880 H     2962  TIP2951     0.2052
   9050 OH2       -14.0370   -4.3470   25.0970 O.3   2963  TIP2952    -0.4105
   9051 H1        -14.7230   -4.6440   25.6940 H     2963  TIP2952     0.2052
   9052 H2        -14.4440   -4.3740   24.2310 H     2963  TIP2952     0.2052
   9053 OH2        -6.2630    0.6120   22.1980 O.3   2964  TIP2953    -0.4105
   9054 H1         -5.6500    1.3440   22.1430 H     2964  TIP2953     0.2052
   9055 H2         -6.1060    0.2320   23.0630 H     2964  TIP2953     0.2052
   9056 OH2       -32.3290    8.5520    3.4820 O.3   2965  TIP2954    -0.4105
   9057 H1        -32.7890    9.0660    2.8190 H     2965  TIP2954     0.2052
   9058 H2        -32.9970    7.9670    3.8390 H     2965  TIP2954     0.2052
   9059 OH2         8.6470   -1.8650    5.9250 O.3   2966  TIP2955    -0.4105
   9060 H1          8.0550   -2.5600    5.6390 H     2966  TIP2955     0.2052
   9061 H2          8.4660   -1.1360    5.3310 H     2966  TIP2955     0.2052
   9062 OH2        13.2180    8.8950   17.3530 O.3   2967  TIP2956    -0.4105
   9063 H1         12.5110    9.3210   16.8670 H     2967  TIP2956     0.2052
   9064 H2         13.8910    8.7210   16.6950 H     2967  TIP2956     0.2052
   9065 OH2        10.2740   21.2440    9.9940 O.3   2968  TIP2957    -0.4105
   9066 H1         11.0330   20.8930    9.5290 H     2968  TIP2957     0.2052
   9067 H2          9.5980   20.5740    9.8880 H     2968  TIP2957     0.2052
   9068 OH2        13.5690  -10.2710    9.3200 O.3   2969  TIP2958    -0.4105
   9069 H1         12.8260   -9.7640    9.6480 H     2969  TIP2958     0.2052
   9070 H2         13.4720  -11.1310    9.7280 H     2969  TIP2958     0.2052
   9071 OH2        -7.3750   17.8200  -13.7630 O.3   2970  TIP2959    -0.4105
   9072 H1         -7.4960   18.7580  -13.9110 H     2970  TIP2959     0.2052
   9073 H2         -8.2460   17.5000  -13.5240 H     2970  TIP2959     0.2052
   9074 OH2        22.2790    3.5890    2.9370 O.3   2971  TIP2960    -0.4105
   9075 H1         22.4510    3.9200    2.0550 H     2971  TIP2960     0.2052
   9076 H2         21.9510    2.7000    2.7990 H     2971  TIP2960     0.2052
   9077 OH2        -8.6930  -19.3310   10.3840 O.3   2972  TIP2961    -0.4105
   9078 H1         -9.0560  -20.1970   10.2010 H     2972  TIP2961     0.2052
   9079 H2         -8.1220  -19.1480    9.6370 H     2972  TIP2961     0.2052
   9080 OH2       -12.0060   -7.7620  -18.9060 O.3   2973  TIP2962    -0.4105
   9081 H1        -12.9570   -7.6550  -18.8790 H     2973  TIP2962     0.2052
   9082 H2        -11.7320   -7.7060  -17.9910 H     2973  TIP2962     0.2052
   9083 OH2        -0.7100   18.4990  -19.1800 O.3   2974  TIP2963    -0.4105
   9084 H1         -0.2590   17.7740  -19.6120 H     2974  TIP2963     0.2052
   9085 H2         -0.8220   18.2080  -18.2750 H     2974  TIP2963     0.2052
   9086 OH2        15.7350  -28.4000    2.7380 O.3   2975  TIP2964    -0.4105
   9087 H1         16.3530  -28.8100    2.1330 H     2975  TIP2964     0.2052
   9088 H2         14.8730  -28.6750    2.4250 H     2975  TIP2964     0.2052
   9089 OH2       -14.9720   -9.5900    2.4070 O.3   2976  TIP2965    -0.4105
   9090 H1        -15.7070  -10.2020    2.3650 H     2976  TIP2965     0.2052
   9091 H2        -14.8950   -9.2480    1.5160 H     2976  TIP2965     0.2052
   9092 OH2        13.5420   11.4290   19.3070 O.3   2977  TIP2966    -0.4105
   9093 H1         13.7220   12.2190   18.7980 H     2977  TIP2966     0.2052
   9094 H2         13.2770   10.7790   18.6570 H     2977  TIP2966     0.2052
   9095 OH2         8.8370    2.7130   11.3200 O.3   2978  TIP2967    -0.4105
   9096 H1          9.3330    1.9030   11.2030 H     2978  TIP2967     0.2052
   9097 H2          9.4870    3.4090   11.2130 H     2978  TIP2967     0.2052
   9098 OH2        -5.5240  -13.8970   19.6340 O.3   2979  TIP2968    -0.4105
   9099 H1         -4.6270  -13.9030   19.3010 H     2979  TIP2968     0.2052
   9100 H2         -5.5540  -13.1480   20.2290 H     2979  TIP2968     0.2052
   9101 OH2         2.0260  -29.4230   -2.6940 O.3   2980  TIP2969    -0.4105
   9102 H1          2.2040  -29.9720   -3.4580 H     2980  TIP2969     0.2052
   9103 H2          2.1960  -28.5310   -2.9960 H     2980  TIP2969     0.2052
   9104 OH2       -28.2580  -13.7140   -4.8340 O.3   2981  TIP2970    -0.4105
   9105 H1        -28.7040  -14.3140   -4.2350 H     2981  TIP2970     0.2052
   9106 H2        -28.6460  -12.8590   -4.6490 H     2981  TIP2970     0.2052
   9107 OH2         1.9350  -12.2550  -12.1750 O.3   2982  TIP2971    -0.4105
   9108 H1          2.6810  -12.8120  -12.3980 H     2982  TIP2971     0.2052
   9109 H2          2.0770  -12.0200  -11.2580 H     2982  TIP2971     0.2052
   9110 OH2         2.7410    0.6900   23.3980 O.3   2983  TIP2972    -0.4105
   9111 H1          2.1270    0.3230   24.0340 H     2983  TIP2972     0.2052
   9112 H2          2.7530    1.6280   23.5900 H     2983  TIP2972     0.2052
   9113 OH2        22.3310  -22.6360    2.3090 O.3   2984  TIP2973    -0.4105
   9114 H1         22.6350  -22.2030    1.5120 H     2984  TIP2973     0.2052
   9115 H2         21.3780  -22.5560    2.2770 H     2984  TIP2973     0.2052
   9116 OH2        19.0370   -0.0550  -18.3840 O.3   2985  TIP2974    -0.4105
   9117 H1         19.0430    0.4120  -19.2190 H     2985  TIP2974     0.2052
   9118 H2         18.1560    0.0850  -18.0360 H     2985  TIP2974     0.2052
   9119 OH2        10.5990   -6.6010   26.8380 O.3   2986  TIP2975    -0.4105
   9120 H1         10.8430   -7.4610   26.4980 H     2986  TIP2975     0.2052
   9121 H2         11.0850   -5.9810   26.2940 H     2986  TIP2975     0.2052
   9122 OH2        25.8160   -6.8790  -10.3720 O.3   2987  TIP2976    -0.4105
   9123 H1         26.2550   -7.4530  -11.0000 H     2987  TIP2976     0.2052
   9124 H2         24.8900   -7.1120  -10.4420 H     2987  TIP2976     0.2052
   9125 OH2       -15.4710  -15.3610   24.9590 O.3   2988  TIP2977    -0.4105
   9126 H1        -14.9250  -14.6360   25.2640 H     2988  TIP2977     0.2052
   9127 H2        -16.2890  -15.2660   25.4480 H     2988  TIP2977     0.2052
   9128 OH2        13.8790    0.8160   17.7110 O.3   2989  TIP2978    -0.4105
   9129 H1         13.5480    1.6260   18.0970 H     2989  TIP2978     0.2052
   9130 H2         14.7290    0.6810   18.1290 H     2989  TIP2978     0.2052
   9131 OH2       -23.0960   -5.2040  -13.6300 O.3   2990  TIP2979    -0.4105
   9132 H1        -23.0190   -4.2530  -13.7070 H     2990  TIP2979     0.2052
   9133 H2        -22.6410   -5.4170  -12.8150 H     2990  TIP2979     0.2052
   9134 OH2        16.1710   -4.1640   -7.9580 O.3   2991  TIP2980    -0.4105
   9135 H1         16.3180   -4.1480   -8.9030 H     2991  TIP2980     0.2052
   9136 H2         17.0090   -3.8980   -7.5790 H     2991  TIP2980     0.2052
   9137 OH2         7.8260   -9.3430  -15.3320 O.3   2992  TIP2981    -0.4105
   9138 H1          7.3220   -9.3630  -16.1460 H     2992  TIP2981     0.2052
   9139 H2          7.6680  -10.1980  -14.9320 H     2992  TIP2981     0.2052
   9140 OH2        15.4300   21.7770   14.4870 O.3   2993  TIP2982    -0.4105
   9141 H1         15.1350   20.9450   14.8570 H     2993  TIP2982     0.2052
   9142 H2         16.3820   21.6940   14.4380 H     2993  TIP2982     0.2052
   9143 OH2         7.5290   -5.6060  -16.7800 O.3   2994  TIP2983    -0.4105
   9144 H1          7.3970   -6.3100  -16.1450 H     2994  TIP2983     0.2052
   9145 H2          8.3850   -5.7900  -17.1670 H     2994  TIP2983     0.2052
   9146 OH2        -7.0860  -11.3590   21.3650 O.3   2995  TIP2984    -0.4105
   9147 H1         -7.4750  -12.2110   21.5620 H     2995  TIP2984     0.2052
   9148 H2         -6.5500  -11.1570   22.1330 H     2995  TIP2984     0.2052
   9149 OH2        23.1000   14.0550    7.5000 O.3   2996  TIP2985    -0.4105
   9150 H1         22.1630   13.8600    7.4840 H     2996  TIP2985     0.2052
   9151 H2         23.3270   14.0670    8.4300 H     2996  TIP2985     0.2052
   9152 OH2       -14.8680    5.5610   -5.9800 O.3   2997  TIP2986    -0.4105
   9153 H1        -15.5830    5.8270   -5.4030 H     2997  TIP2986     0.2052
   9154 H2        -14.2560    6.2960   -5.9590 H     2997  TIP2986     0.2052
   9155 OH2       -30.2550    3.7190    2.5000 O.3   2998  TIP2987    -0.4105
   9156 H1        -31.0940    3.6140    2.0520 H     2998  TIP2987     0.2052
   9157 H2        -30.4660    3.6230    3.4290 H     2998  TIP2987     0.2052
   9158 OH2       -28.1580  -12.1580   19.3480 O.3   2999  TIP2988    -0.4105
   9159 H1        -27.3620  -12.4360   18.8950 H     2999  TIP2988     0.2052
   9160 H2        -28.2020  -12.7190   20.1220 H     2999  TIP2988     0.2052
   9161 OH2       -25.1640  -13.8080   -7.2440 O.3   3000  TIP2989    -0.4105
   9162 H1        -26.1120  -13.6790   -7.2270 H     3000  TIP2989     0.2052
   9163 H2        -25.0120  -14.5470   -6.6550 H     3000  TIP2989     0.2052
   9164 OH2       -12.2050   -6.3800   15.0970 O.3   3001  TIP2990    -0.4105
   9165 H1        -11.5990   -6.4760   15.8310 H     3001  TIP2990     0.2052
   9166 H2        -12.6890   -5.5770   15.2890 H     3001  TIP2990     0.2052
   9167 OH2        25.1380   -1.6800    7.5770 O.3   3002  TIP2991    -0.4105
   9168 H1         25.8730   -1.8040    6.9760 H     3002  TIP2991     0.2052
   9169 H2         24.9360   -0.7460    7.5200 H     3002  TIP2991     0.2052
   9170 OH2       -13.1850    4.8260  -20.2170 O.3   3003  TIP2992    -0.4105
   9171 H1        -12.3880    4.3220  -20.0530 H     3003  TIP2992     0.2052
   9172 H2        -12.9050    5.5350  -20.7970 H     3003  TIP2992     0.2052
   9173 OH2        -9.7820  -26.3230  -22.3790 O.3   3004  TIP2993    -0.4105
   9174 H1         -9.9440  -26.9860  -23.0510 H     3004  TIP2993     0.2052
   9175 H2         -9.6680  -26.8240  -21.5710 H     3004  TIP2993     0.2052
   9176 OH2       -21.1660  -12.5740   -1.1760 O.3   3005  TIP2994    -0.4105
   9177 H1        -21.4020  -11.9560   -0.4840 H     3005  TIP2994     0.2052
   9178 H2        -21.6840  -13.3560   -0.9850 H     3005  TIP2994     0.2052
   9179 OH2        10.6110  -19.3550   10.9290 O.3   3006  TIP2995    -0.4105
   9180 H1         10.0250  -19.2050   11.6710 H     3006  TIP2995     0.2052
   9181 H2         10.2790  -20.1530   10.5180 H     3006  TIP2995     0.2052
   9182 OH2        12.0710    6.0830   17.5110 O.3   3007  TIP2996    -0.4105
   9183 H1         12.0000    7.0250   17.6700 H     3007  TIP2996     0.2052
   9184 H2         11.9000    5.6830   18.3640 H     3007  TIP2996     0.2052
   9185 OH2         9.4910    7.0320   12.9540 O.3   3008  TIP2997    -0.4105
   9186 H1          8.7090    7.4390   13.3270 H     3008  TIP2997     0.2052
   9187 H2          9.8130    7.6710   12.3190 H     3008  TIP2997     0.2052
   9188 OH2        15.8430    9.1150    2.2790 O.3   3009  TIP2998    -0.4105
   9189 H1         16.4090    9.5000    2.9480 H     3009  TIP2998     0.2052
   9190 H2         15.4210    8.3760    2.7180 H     3009  TIP2998     0.2052
   9191 OH2        -7.2950   12.6980   21.0630 O.3   3010  TIP2999    -0.4105
   9192 H1         -6.7610   12.0040   21.4510 H     3010  TIP2999     0.2052
   9193 H2         -7.2250   13.4270   21.6790 H     3010  TIP2999     0.2052
   9194 OH2       -13.9700   25.8900   12.7560 O.3   3011  TIP3000    -0.4105
   9195 H1        -14.7660   26.3460   13.0310 H     3011  TIP3000     0.2052
   9196 H2        -14.0730   25.0010   13.0980 H     3011  TIP3000     0.2052
   9197 OH2         3.4450   14.2510    7.6050 O.3   3012  TIP3001    -0.4105
   9198 H1          2.9180   13.4840    7.3780 H     3012  TIP3001     0.2052
   9199 H2          4.3110   13.8960    7.8050 H     3012  TIP3001     0.2052
   9200 OH2        10.6490    2.1540   25.4040 O.3   3013  TIP3002    -0.4105
   9201 H1         10.0750    2.8880   25.6230 H     3013  TIP3002     0.2052
   9202 H2         11.5310    2.5230   25.4340 H     3013  TIP3002     0.2052
   9203 OH2         7.9100    8.3910   20.0270 O.3   3014  TIP3003    -0.4105
   9204 H1          7.0100    8.7060   20.1100 H     3014  TIP3003     0.2052
   9205 H2          8.4340    9.0290   20.5110 H     3014  TIP3003     0.2052
   9206 OH2       -17.8770   17.0550    2.0640 O.3   3015  TIP3004    -0.4105
   9207 H1        -17.4380   17.1540    1.2190 H     3015  TIP3004     0.2052
   9208 H2        -17.7610   17.9010    2.4950 H     3015  TIP3004     0.2052
   9209 OH2        12.9090  -15.3680   17.1000 O.3   3016  TIP3005    -0.4105
   9210 H1         13.3730  -15.6890   17.8730 H     3016  TIP3005     0.2052
   9211 H2         13.2680  -14.4930   16.9510 H     3016  TIP3005     0.2052
   9212 OH2         7.4350   17.6100    4.4320 O.3   3017  TIP3006    -0.4105
   9213 H1          7.4560   16.7170    4.0890 H     3017  TIP3006     0.2052
   9214 H2          8.3330   17.7790    4.7180 H     3017  TIP3006     0.2052
   9215 OH2         6.7740  -10.1640   11.8290 O.3   3018  TIP3007    -0.4105
   9216 H1          6.6790   -9.6320   11.0390 H     3018  TIP3007     0.2052
   9217 H2          6.0660  -10.8060   11.7720 H     3018  TIP3007     0.2052
   9218 OH2        14.1340  -27.2760   -8.7690 O.3   3019  TIP3008    -0.4105
   9219 H1         14.7430  -26.5380   -8.7720 H     3019  TIP3008     0.2052
   9220 H2         14.5070  -27.8930   -8.1390 H     3019  TIP3008     0.2052
   9221 OH2       -18.0770   -5.4660   12.2830 O.3   3020  TIP3009    -0.4105
   9222 H1        -17.3050   -4.9100   12.1780 H     3020  TIP3009     0.2052
   9223 H2        -18.1800   -5.8960   11.4340 H     3020  TIP3009     0.2052
   9224 OH2        -6.7450   -9.4980   28.0850 O.3   3021  TIP3010    -0.4105
   9225 H1         -7.2940   -8.9480   28.6430 H     3021  TIP3010     0.2052
   9226 H2         -7.0840  -10.3840   28.2140 H     3021  TIP3010     0.2052
   9227 OH2       -20.3240   -7.4160   17.1950 O.3   3022  TIP3011    -0.4105
   9228 H1        -20.9190   -6.6790   17.3290 H     3022  TIP3011     0.2052
   9229 H2        -19.7500   -7.1340   16.4830 H     3022  TIP3011     0.2052
   9230 OH2        21.0200   20.7560   17.6730 O.3   3023  TIP3012    -0.4105
   9231 H1         20.4840   19.9650   17.6210 H     3023  TIP3012     0.2052
   9232 H2         21.9170   20.4480   17.5450 H     3023  TIP3012     0.2052
   9233 OH2        18.3140   -1.6770   -9.6270 O.3   3024  TIP3013    -0.4105
   9234 H1         18.6040   -1.3470  -10.4780 H     3024  TIP3013     0.2052
   9235 H2         18.4390   -0.9410   -9.0290 H     3024  TIP3013     0.2052
   9236 OH2        16.6250    5.4880    1.8030 O.3   3025  TIP3014    -0.4105
   9237 H1         16.0820    6.1980    1.4610 H     3025  TIP3014     0.2052
   9238 H2         16.9270    5.0210    1.0240 H     3025  TIP3014     0.2052
   9239 OH2        20.9970   -8.8670  -10.5900 O.3   3026  TIP3015    -0.4105
   9240 H1         20.3710   -8.6930   -9.8870 H     3026  TIP3015     0.2052
   9241 H2         21.8380   -8.9690  -10.1430 H     3026  TIP3015     0.2052
   9242 OH2        -6.4490    9.8030   14.7850 O.3   3027  TIP3016    -0.4105
   9243 H1         -7.0690   10.4770   14.5070 H     3027  TIP3016     0.2052
   9244 H2         -5.9760   10.2000   15.5160 H     3027  TIP3016     0.2052
   9245 OH2       -15.0530    8.5850    6.5370 O.3   3028  TIP3017    -0.4105
   9246 H1        -15.9760    8.8330    6.4970 H     3028  TIP3017     0.2052
   9247 H2        -15.0580    7.6300    6.4800 H     3028  TIP3017     0.2052
   9248 OH2         0.6090  -25.8270    6.9120 O.3   3029  TIP3018    -0.4105
   9249 H1          0.4630  -24.8820    6.9580 H     3029  TIP3018     0.2052
   9250 H2          1.2560  -25.9360    6.2150 H     3029  TIP3018     0.2052
   9251 OH2        -0.6950  -15.7360  -19.6380 O.3   3030  TIP3019    -0.4105
   9252 H1         -0.8870  -15.8340  -20.5700 H     3030  TIP3019     0.2052
   9253 H2         -0.5650  -14.7960  -19.5170 H     3030  TIP3019     0.2052
   9254 OH2        -1.8500    1.4740   29.7260 O.3   3031  TIP3020    -0.4105
   9255 H1         -2.3640    1.2900   30.5120 H     3031  TIP3020     0.2052
   9256 H2         -1.5870    0.6120   29.4040 H     3031  TIP3020     0.2052
   9257 OH2        13.9360  -11.0830    2.7460 O.3   3032  TIP3021    -0.4105
   9258 H1         13.5840  -11.6200    3.4560 H     3032  TIP3021     0.2052
   9259 H2         13.1830  -10.9090    2.1810 H     3032  TIP3021     0.2052
   9260 OH2        25.7840  -25.1030   -1.7160 O.3   3033  TIP3022    -0.4105
   9261 H1         25.5660  -25.9250   -1.2790 H     3033  TIP3022     0.2052
   9262 H2         26.5600  -24.7840   -1.2560 H     3033  TIP3022     0.2052
   9263 OH2        31.9910    8.2430   -7.5830 O.3   3034  TIP3023    -0.4105
   9264 H1         32.7000    7.7120   -7.2190 H     3034  TIP3023     0.2052
   9265 H2         31.6470    8.7290   -6.8340 H     3034  TIP3023     0.2052
   9266 OH2        16.1880  -12.7260    2.4480 O.3   3035  TIP3024    -0.4105
   9267 H1         15.4660  -12.0980    2.4550 H     3035  TIP3024     0.2052
   9268 H2         16.7640  -12.4370    3.1570 H     3035  TIP3024     0.2052
   9269 OH2         5.1050   -4.4450  -17.6210 O.3   3036  TIP3025    -0.4105
   9270 H1          5.9930   -4.7800  -17.4970 H     3036  TIP3025     0.2052
   9271 H2          4.7410   -4.3980  -16.7370 H     3036  TIP3025     0.2052
   9272 OH2         7.0540   -8.5900   -0.5360 O.3   3037  TIP3026    -0.4105
   9273 H1          6.2460   -8.0770   -0.5550 H     3037  TIP3026     0.2052
   9274 H2          7.3380   -8.5580    0.3770 H     3037  TIP3026     0.2052
   9275 OH2       -11.7860  -12.4220  -20.1500 O.3   3038  TIP3027    -0.4105
   9276 H1        -10.9910  -12.6350  -19.6620 H     3038  TIP3027     0.2052
   9277 H2        -11.6960  -11.4930  -20.3630 H     3038  TIP3027     0.2052
   9278 OH2         8.5820  -12.2840   11.9120 O.3   3039  TIP3028    -0.4105
   9279 H1          7.9680  -11.5550   12.0010 H     3039  TIP3028     0.2052
   9280 H2          8.0260  -13.0590   11.8330 H     3039  TIP3028     0.2052
   9281 OH2         7.6350   -5.7700   25.9140 O.3   3040  TIP3029    -0.4105
   9282 H1          7.0600   -5.6650   26.6720 H     3040  TIP3029     0.2052
   9283 H2          8.5100   -5.8680   26.2890 H     3040  TIP3029     0.2052
   9284 OH2        16.2840   18.0560   -9.8890 O.3   3041  TIP3030    -0.4105
   9285 H1         15.6130   17.7900  -10.5180 H     3041  TIP3030     0.2052
   9286 H2         17.0980   18.0590  -10.3920 H     3041  TIP3030     0.2052
   9287 OH2         4.6880    7.3290    1.7960 O.3   3042  TIP3031    -0.4105
   9288 H1          5.2680    7.2500    1.0390 H     3042  TIP3031     0.2052
   9289 H2          3.9000    7.7500    1.4520 H     3042  TIP3031     0.2052
   9290 OH2        -3.9130   -1.7380  -17.4270 O.3   3043  TIP3032    -0.4105
   9291 H1         -3.9560   -1.7110  -18.3830 H     3043  TIP3032     0.2052
   9292 H2         -3.0200   -1.4660  -17.2190 H     3043  TIP3032     0.2052
   9293 OH2        -4.4050   15.5550   -2.4020 O.3   3044  TIP3033    -0.4105
   9294 H1         -4.5760   14.7010   -2.7990 H     3044  TIP3033     0.2052
   9295 H2         -5.2370   15.8020   -1.9970 H     3044  TIP3033     0.2052
   9296 OH2        11.7470    3.4320   -6.9690 O.3   3045  TIP3034    -0.4105
   9297 H1         12.1620    4.0450   -7.5750 H     3045  TIP3034     0.2052
   9298 H2         12.4570    3.1420   -6.3960 H     3045  TIP3034     0.2052
   9299 OH2         6.3370   22.3380    2.8040 O.3   3046  TIP3035    -0.4105
   9300 H1          6.9600   22.2930    2.0790 H     3046  TIP3035     0.2052
   9301 H2          6.1570   21.4230    3.0230 H     3046  TIP3035     0.2052
   9302 OH2        -8.4550  -16.3560    1.6480 O.3   3047  TIP3036    -0.4105
   9303 H1         -9.0450  -17.0290    1.3080 H     3047  TIP3036     0.2052
   9304 H2         -8.8580  -15.5280    1.3860 H     3047  TIP3036     0.2052
   9305 OH2         5.9260  -29.5280    3.9510 O.3   3048  TIP3037    -0.4105
   9306 H1          6.6160  -29.4170    3.2970 H     3048  TIP3037     0.2052
   9307 H2          6.3440  -29.3010    4.7810 H     3048  TIP3037     0.2052
   9308 OH2        17.9690  -18.6810   -9.6430 O.3   3049  TIP3038    -0.4105
   9309 H1         18.1910  -19.3000   -8.9470 H     3049  TIP3038     0.2052
   9310 H2         18.7100  -18.7230  -10.2470 H     3049  TIP3038     0.2052
   9311 OH2         0.3080  -21.8370   18.2850 O.3   3050  TIP3039    -0.4105
   9312 H1          0.3760  -21.9620   17.3390 H     3050  TIP3039     0.2052
   9313 H2         -0.3570  -22.4670   18.5630 H     3050  TIP3039     0.2052
   9314 OH2        -6.8750   -9.4930   19.5510 O.3   3051  TIP3040    -0.4105
   9315 H1         -7.8020   -9.2550   19.5320 H     3051  TIP3040     0.2052
   9316 H2         -6.8110  -10.1540   20.2410 H     3051  TIP3040     0.2052
   9317 OH2        -7.0190   -0.1120   28.4070 O.3   3052  TIP3041    -0.4105
   9318 H1         -7.0950    0.7010   27.9070 H     3052  TIP3041     0.2052
   9319 H2         -7.1770   -0.8040   27.7650 H     3052  TIP3041     0.2052
   9320 OH2        -8.7270  -22.8980  -17.7580 O.3   3053  TIP3042    -0.4105
   9321 H1         -8.0730  -22.6320  -18.4040 H     3053  TIP3042     0.2052
   9322 H2         -8.2750  -22.8310  -16.9170 H     3053  TIP3042     0.2052
   9323 OH2         2.4880    8.8760    0.9170 O.3   3054  TIP3043    -0.4105
   9324 H1          2.1530    9.0470    0.0360 H     3054  TIP3043     0.2052
   9325 H2          1.7160    8.6210    1.4220 H     3054  TIP3043     0.2052
   9326 OH2        -2.0820  -22.1280   16.1480 O.3   3055  TIP3044    -0.4105
   9327 H1         -1.7260  -22.0300   15.2650 H     3055  TIP3044     0.2052
   9328 H2         -2.0680  -21.2420   16.5120 H     3055  TIP3044     0.2052
   9329 OH2         3.3190    1.3100   33.8520 O.3   3056  TIP3045    -0.4105
   9330 H1          2.9390    0.6930   33.2270 H     3056  TIP3045     0.2052
   9331 H2          2.5780    1.6020   34.3820 H     3056  TIP3045     0.2052
   9332 OH2       -10.7100   -8.8670   27.3700 O.3   3057  TIP3046    -0.4105
   9333 H1        -10.4370   -9.2330   26.5290 H     3057  TIP3046     0.2052
   9334 H2        -11.5580   -9.2740   27.5440 H     3057  TIP3046     0.2052
   9335 OH2        13.8110   21.6910   30.0430 O.3   3058  TIP3047    -0.4105
   9336 H1         14.3920   22.3810   30.3620 H     3058  TIP3047     0.2052
   9337 H2         12.9570   21.9030   30.4200 H     3058  TIP3047     0.2052
   9338 OH2         5.7310    0.1690  -21.7560 O.3   3059  TIP3048    -0.4105
   9339 H1          4.9030   -0.2450  -21.5100 H     3059  TIP3048     0.2052
   9340 H2          5.6420    1.0760  -21.4660 H     3059  TIP3048     0.2052
   9341 OH2        11.5410   15.8240   12.6160 O.3   3060  TIP3049    -0.4105
   9342 H1         11.8900   16.6800   12.8640 H     3060  TIP3049     0.2052
   9343 H2         11.0640   15.5260   13.3910 H     3060  TIP3049     0.2052
   9344 OH2        15.9660   24.2520   27.2550 O.3   3061  TIP3050    -0.4105
   9345 H1         16.3400   25.0690   26.9240 H     3061  TIP3050     0.2052
   9346 H2         15.1350   24.1620   26.7900 H     3061  TIP3050     0.2052
   9347 OH2       -18.1480  -15.2240   -7.9460 O.3   3062  TIP3051    -0.4105
   9348 H1        -18.1010  -15.4830   -7.0260 H     3062  TIP3051     0.2052
   9349 H2        -17.3460  -14.7230   -8.0950 H     3062  TIP3051     0.2052
   9350 OH2        15.5030    4.5910  -15.9900 O.3   3063  TIP3052    -0.4105
   9351 H1         16.4490    4.5610  -16.1350 H     3063  TIP3052     0.2052
   9352 H2         15.1240    4.5510  -16.8680 H     3063  TIP3052     0.2052
   9353 OH2        -8.1930   10.2310  -24.5020 O.3   3064  TIP3053    -0.4105
   9354 H1         -8.2790   11.1790  -24.6080 H     3064  TIP3053     0.2052
   9355 H2         -9.0810    9.8950  -24.6280 H     3064  TIP3053     0.2052
   9356 OH2       -18.2020    5.4980   -5.1100 O.3   3065  TIP3054    -0.4105
   9357 H1        -17.7280    4.6670   -5.1030 H     3065  TIP3054     0.2052
   9358 H2        -17.9840    5.9060   -4.2720 H     3065  TIP3054     0.2052
   9359 OH2         4.9820    1.0960   -8.1990 O.3   3066  TIP3055    -0.4105
   9360 H1          4.9930    1.9440   -8.6440 H     3066  TIP3055     0.2052
   9361 H2          5.7680    1.1020   -7.6520 H     3066  TIP3055     0.2052
   9362 OH2        17.2360   -6.4800  -11.7000 O.3   3067  TIP3056    -0.4105
   9363 H1         18.0310   -6.0100  -11.4460 H     3067  TIP3056     0.2052
   9364 H2         16.7160   -5.8310  -12.1740 H     3067  TIP3056     0.2052
   9365 OH2        -6.8960   -2.4820   -4.3860 O.3   3068  TIP3057    -0.4105
   9366 H1         -7.7400   -2.8160   -4.0840 H     3068  TIP3057     0.2052
   9367 H2         -7.1190   -1.7660   -4.9820 H     3068  TIP3057     0.2052
   9368 OH2       -12.1910  -19.7670  -23.1500 O.3   3069  TIP3058    -0.4105
   9369 H1        -12.5890  -18.9030  -23.0520 H     3069  TIP3058     0.2052
   9370 H2        -11.3450  -19.6940  -22.7080 H     3069  TIP3058     0.2052
   9371 OH2       -10.0570   18.0300    0.8650 O.3   3070  TIP3059    -0.4105
   9372 H1        -10.9150   18.3510    1.1430 H     3070  TIP3059     0.2052
   9373 H2        -10.2430   17.1990    0.4280 H     3070  TIP3059     0.2052
   9374 OH2        10.0540   -8.9050  -12.1170 O.3   3071  TIP3060    -0.4105
   9375 H1          9.2410   -9.0880  -11.6440 H     3071  TIP3060     0.2052
   9376 H2         10.7460   -9.0700  -11.4770 H     3071  TIP3060     0.2052
   9377 OH2       -16.8080   -8.0710   25.4370 O.3   3072  TIP3061    -0.4105
   9378 H1        -17.4210   -7.7960   24.7560 H     3072  TIP3061     0.2052
   9379 H2        -17.0960   -8.9510   25.6790 H     3072  TIP3061     0.2052
   9380 OH2        21.2220   13.5870    9.6140 O.3   3073  TIP3062    -0.4105
   9381 H1         21.2800   14.2230   10.3270 H     3073  TIP3062     0.2052
   9382 H2         20.5290   12.9850    9.8850 H     3073  TIP3062     0.2052
   9383 OH2         9.7500   10.6250  -22.2410 O.3   3074  TIP3063    -0.4105
   9384 H1          9.2980   11.3000  -21.7350 H     3074  TIP3063     0.2052
   9385 H2          9.3750    9.8000  -21.9310 H     3074  TIP3063     0.2052
   9386 OH2        -1.0660  -23.8360   19.3840 O.3   3075  TIP3064    -0.4105
   9387 H1         -1.4660  -23.4710   20.1730 H     3075  TIP3064     0.2052
   9388 H2         -1.4540  -24.7070   19.2990 H     3075  TIP3064     0.2052
   9389 OH2         4.7660    7.8070   -8.0830 O.3   3076  TIP3065    -0.4105
   9390 H1          4.7260    7.4600   -8.9750 H     3076  TIP3065     0.2052
   9391 H2          5.2220    7.1300   -7.5830 H     3076  TIP3065     0.2052
   9392 OH2       -27.8110   -4.1850   11.5740 O.3   3077  TIP3066    -0.4105
   9393 H1        -28.2780   -4.0250   12.3940 H     3077  TIP3066     0.2052
   9394 H2        -27.7680   -5.1380   11.5040 H     3077  TIP3066     0.2052
   9395 OH2        -5.8780   -3.8610  -16.6910 O.3   3078  TIP3067    -0.4105
   9396 H1         -6.3560   -3.6300  -17.4870 H     3078  TIP3067     0.2052
   9397 H2         -5.4450   -3.0490  -16.4270 H     3078  TIP3067     0.2052
   9398 OH2         2.1280  -13.4740   -6.2790 O.3   3079  TIP3068    -0.4105
   9399 H1          2.3880  -14.0090   -5.5290 H     3079  TIP3068     0.2052
   9400 H2          1.3510  -13.9110   -6.6290 H     3079  TIP3068     0.2052
   9401 OH2        13.1630   22.8780   16.0390 O.3   3080  TIP3069    -0.4105
   9402 H1         12.7410   23.5240   15.4720 H     3080  TIP3069     0.2052
   9403 H2         14.0420   22.7780   15.6740 H     3080  TIP3069     0.2052
   9404 OH2         1.0620   25.3070   17.4310 O.3   3081  TIP3070    -0.4105
   9405 H1          0.5510   24.9200   18.1420 H     3081  TIP3070     0.2052
   9406 H2          0.6500   24.9770   16.6320 H     3081  TIP3070     0.2052
   9407 OH2       -10.0260    3.1540   -4.1170 O.3   3082  TIP3071    -0.4105
   9408 H1        -10.6400    2.7730   -4.7450 H     3082  TIP3071     0.2052
   9409 H2         -9.1690    2.8310   -4.3940 H     3082  TIP3071     0.2052
   9410 OH2       -10.8930    8.4080  -16.0410 O.3   3083  TIP3072    -0.4105
   9411 H1        -11.7740    8.3370  -15.6720 H     3083  TIP3072     0.2052
   9412 H2        -10.3140    8.4120  -15.2790 H     3083  TIP3072     0.2052
   9413 OH2         3.7400  -19.4450   -3.8290 O.3   3084  TIP3073    -0.4105
   9414 H1          4.6200  -19.1610   -4.0760 H     3084  TIP3073     0.2052
   9415 H2          3.6220  -20.2800   -4.2820 H     3084  TIP3073     0.2052
   9416 OH2         6.7180   15.2580   29.7520 O.3   3085  TIP3074    -0.4105
   9417 H1          5.8510   15.0630   30.1070 H     3085  TIP3074     0.2052
   9418 H2          6.7460   14.7930   28.9160 H     3085  TIP3074     0.2052
   9419 OH2        -1.0420   30.7040   16.7330 O.3   3086  TIP3075    -0.4105
   9420 H1         -1.3730   30.6990   17.6310 H     3086  TIP3075     0.2052
   9421 H2         -1.7440   31.1070   16.2210 H     3086  TIP3075     0.2052
   9422 OH2        -4.2290  -16.1840   17.6760 O.3   3087  TIP3076    -0.4105
   9423 H1         -5.0410  -15.8020   18.0100 H     3087  TIP3076     0.2052
   9424 H2         -3.7040  -16.3540   18.4580 H     3087  TIP3076     0.2052
   9425 OH2         4.9470   20.9780   -0.3740 O.3   3088  TIP3077    -0.4105
   9426 H1          4.3490   20.2330   -0.3210 H     3088  TIP3077     0.2052
   9427 H2          4.5160   21.5910   -0.9690 H     3088  TIP3077     0.2052
   9428 OH2        25.2820   -3.0240    0.9340 O.3   3089  TIP3078    -0.4105
   9429 H1         25.1040   -3.2650    1.8430 H     3089  TIP3078     0.2052
   9430 H2         25.4470   -3.8570    0.4920 H     3089  TIP3078     0.2052
   9431 OH2        14.6290  -29.6970   12.9310 O.3   3090  TIP3079    -0.4105
   9432 H1         14.0110  -30.3260   12.5570 H     3090  TIP3079     0.2052
   9433 H2         14.7900  -30.0180   13.8180 H     3090  TIP3079     0.2052
   9434 OH2        -6.6100   27.3150    7.0970 O.3   3091  TIP3080    -0.4105
   9435 H1         -5.6750   27.4590    7.2460 H     3091  TIP3080     0.2052
   9436 H2         -6.6800   27.1430    6.1580 H     3091  TIP3080     0.2052
   9437 OH2        -7.2640  -10.8800   -9.0140 O.3   3092  TIP3081    -0.4105
   9438 H1         -6.9280  -11.7570   -9.1990 H     3092  TIP3081     0.2052
   9439 H2         -6.5590  -10.4500   -8.5300 H     3092  TIP3081     0.2052
   9440 OH2       -17.1880  -13.5550  -10.8790 O.3   3093  TIP3082    -0.4105
   9441 H1        -17.0560  -13.0320  -11.6700 H     3093  TIP3082     0.2052
   9442 H2        -17.5370  -14.3880  -11.1980 H     3093  TIP3082     0.2052
   9443 OH2        11.8740    5.4630  -15.3550 O.3   3094  TIP3083    -0.4105
   9444 H1         12.7370    5.5240  -14.9440 H     3094  TIP3083     0.2052
   9445 H2         11.4230    4.7750  -14.8660 H     3094  TIP3083     0.2052
   9446 OH2        -4.7120   10.1380    5.8170 O.3   3095  TIP3084    -0.4105
   9447 H1         -5.1410   10.8870    6.2310 H     3095  TIP3084     0.2052
   9448 H2         -3.8580   10.4730    5.5420 H     3095  TIP3084     0.2052
   9449 OH2       -16.9820    2.9100  -18.8340 O.3   3096  TIP3085    -0.4105
   9450 H1        -17.6180    2.3000  -18.4590 H     3096  TIP3085     0.2052
   9451 H2        -16.1640    2.4150  -18.8650 H     3096  TIP3085     0.2052
   9452 OH2        -8.3880    5.6250  -13.5210 O.3   3097  TIP3086    -0.4105
   9453 H1         -9.2560    5.4360  -13.1640 H     3097  TIP3086     0.2052
   9454 H2         -7.9090    4.8000  -13.4340 H     3097  TIP3086     0.2052
   9455 OH2        20.3770   22.0410   20.0700 O.3   3098  TIP3087    -0.4105
   9456 H1         19.8950   21.3470   20.5200 H     3098  TIP3087     0.2052
   9457 H2         20.7320   21.6190   19.2880 H     3098  TIP3087     0.2052
   9458 OH2         5.4720    0.0090   14.9160 O.3   3099  TIP3088    -0.4105
   9459 H1          6.0870    0.7090   15.1310 H     3099  TIP3088     0.2052
   9460 H2          5.1110    0.2590   14.0660 H     3099  TIP3088     0.2052
   9461 OH2       -18.6560   -1.1340   20.8580 O.3   3100  TIP3089    -0.4105
   9462 H1        -17.9900   -0.5390   20.5140 H     3100  TIP3089     0.2052
   9463 H2        -18.9880   -1.5940   20.0860 H     3100  TIP3089     0.2052
   9464 OH2         0.3220  -15.0790  -13.0830 O.3   3101  TIP3090    -0.4105
   9465 H1          1.0000  -15.5000  -13.6120 H     3101  TIP3090     0.2052
   9466 H2          0.0600  -14.3130  -13.5940 H     3101  TIP3090     0.2052
   9467 OH2        29.5190  -13.9230   -2.4360 O.3   3102  TIP3091    -0.4105
   9468 H1         29.5050  -14.2440   -1.5340 H     3102  TIP3091     0.2052
   9469 H2         30.2590  -14.3760   -2.8400 H     3102  TIP3091     0.2052
   9470 OH2         3.9270  -20.6730    6.2990 O.3   3103  TIP3092    -0.4105
   9471 H1          3.7590  -21.2120    5.5260 H     3103  TIP3092     0.2052
   9472 H2          3.0960  -20.2300    6.4690 H     3103  TIP3092     0.2052
   9473 OH2        -3.5840    7.2590  -27.9130 O.3   3104  TIP3093    -0.4105
   9474 H1         -3.1830    6.7840  -27.1860 H     3104  TIP3093     0.2052
   9475 H2         -4.3200    6.7090  -28.1820 H     3104  TIP3093     0.2052
   9476 OH2         8.4140  -23.2280   -8.6390 O.3   3105  TIP3094    -0.4105
   9477 H1          8.6390  -22.2970   -8.6410 H     3105  TIP3094     0.2052
   9478 H2          8.1480  -23.4120   -9.5400 H     3105  TIP3094     0.2052
   9479 OH2        -2.3140  -20.7020   27.7040 O.3   3106  TIP3095    -0.4105
   9480 H1         -2.9050  -21.3360   27.3000 H     3106  TIP3095     0.2052
   9481 H2         -1.4740  -21.1570   27.7600 H     3106  TIP3095     0.2052
   9482 OH2        -7.9360   15.6470  -16.1180 O.3   3107  TIP3096    -0.4105
   9483 H1         -8.5320   14.8980  -16.1340 H     3107  TIP3096     0.2052
   9484 H2         -7.9260   15.9260  -15.2030 H     3107  TIP3096     0.2052
   9485 OH2        18.6580   17.1980   18.2930 O.3   3108  TIP3097    -0.4105
   9486 H1         18.3940   17.5470   19.1450 H     3108  TIP3097     0.2052
   9487 H2         18.1910   16.3660   18.2190 H     3108  TIP3097     0.2052
   9488 OH2         1.9410  -10.9710   24.9600 O.3   3109  TIP3098    -0.4105
   9489 H1          2.4260  -10.3760   24.3890 H     3109  TIP3098     0.2052
   9490 H2          2.5920  -11.6110   25.2480 H     3109  TIP3098     0.2052
   9491 OH2        12.8740   -1.4390  -15.1310 O.3   3110  TIP3099    -0.4105
   9492 H1         13.7550   -1.2760  -15.4670 H     3110  TIP3099     0.2052
   9493 H2         12.4390   -1.9310  -15.8270 H     3110  TIP3099     0.2052
   9494 OH2       -19.4570    2.9150   -8.3080 O.3   3111  TIP3100    -0.4105
   9495 H1        -20.0130    3.4840   -8.8410 H     3111  TIP3100     0.2052
   9496 H2        -19.1860    2.2180   -8.9040 H     3111  TIP3100     0.2052
   9497 OH2       -17.1060   12.1660   -8.9050 O.3   3112  TIP3101    -0.4105
   9498 H1        -17.2030   11.2360   -9.1080 H     3112  TIP3101     0.2052
   9499 H2        -16.9600   12.5830   -9.7540 H     3112  TIP3101     0.2052
   9500 OH2         0.1250   20.8870  -27.8590 O.3   3113  TIP3102    -0.4105
   9501 H1         -0.1240   20.0090  -27.5700 H     3113  TIP3102     0.2052
   9502 H2         -0.0280   20.8800  -28.8040 H     3113  TIP3102     0.2052
   9503 OH2        25.4550    1.1990  -11.8890 O.3   3114  TIP3103    -0.4105
   9504 H1         24.6040    1.3500  -11.4790 H     3114  TIP3103     0.2052
   9505 H2         25.2840    1.2670  -12.8290 H     3114  TIP3103     0.2052
   9506 OH2         1.0250   -9.1490   10.3380 O.3   3115  TIP3104    -0.4105
   9507 H1          0.7920   -9.7900    9.6670 H     3115  TIP3104     0.2052
   9508 H2          1.4360   -9.6670   11.0310 H     3115  TIP3104     0.2052
   9509 OH2       -26.0190  -12.3270   -0.9770 O.3   3116  TIP3105    -0.4105
   9510 H1        -25.8690  -12.6140   -1.8770 H     3116  TIP3105     0.2052
   9511 H2        -25.5330  -12.9540   -0.4410 H     3116  TIP3105     0.2052
   9512 OH2         8.3650  -19.6710    6.5660 O.3   3117  TIP3106    -0.4105
   9513 H1          9.0900  -20.2190    6.8660 H     3117  TIP3106     0.2052
   9514 H2          8.2030  -19.0690    7.2920 H     3117  TIP3106     0.2052
   9515 OH2       -13.4030   -6.9080   -2.3790 O.3   3118  TIP3107    -0.4105
   9516 H1        -12.6500   -6.6830   -1.8330 H     3118  TIP3107     0.2052
   9517 H2        -14.0030   -6.1690   -2.2770 H     3118  TIP3107     0.2052
   9518 OH2       -17.6370    3.1600    9.3080 O.3   3119  TIP3108    -0.4105
   9519 H1        -17.3830    2.9180    8.4170 H     3119  TIP3108     0.2052
   9520 H2        -17.6260    2.3350    9.7930 H     3119  TIP3108     0.2052
   9521 OH2        -6.6510   11.2670  -18.8290 O.3   3120  TIP3109    -0.4105
   9522 H1         -6.8530   11.5770  -17.9460 H     3120  TIP3109     0.2052
   9523 H2         -7.4100   10.7400  -19.0780 H     3120  TIP3109     0.2052
   9524 OH2        15.3710   10.5540  -12.8150 O.3   3121  TIP3110    -0.4105
   9525 H1         14.9410   10.6460  -13.6650 H     3121  TIP3110     0.2052
   9526 H2         14.8570   11.1050  -12.2250 H     3121  TIP3110     0.2052
   9527 OH2       -18.6950  -14.1430  -18.8250 O.3   3122  TIP3111    -0.4105
   9528 H1        -19.2160  -14.1260  -19.6280 H     3122  TIP3111     0.2052
   9529 H2        -18.9180  -14.9760  -18.4110 H     3122  TIP3111     0.2052
   9530 OH2        -3.8260   27.6280   18.8880 O.3   3123  TIP3112    -0.4105
   9531 H1         -3.3850   27.8910   18.0800 H     3123  TIP3112     0.2052
   9532 H2         -4.6430   27.2250   18.5960 H     3123  TIP3112     0.2052
   9533 OH2        23.3470   -0.3900  -14.1190 O.3   3124  TIP3113    -0.4105
   9534 H1         23.7050   -1.2770  -14.1590 H     3124  TIP3113     0.2052
   9535 H2         23.7790    0.0760  -14.8350 H     3124  TIP3113     0.2052
   9536 OH2        -0.7890  -28.4630   -2.2070 O.3   3125  TIP3114    -0.4105
   9537 H1         -0.0830  -29.0890   -2.3670 H     3125  TIP3114     0.2052
   9538 H2         -0.5830  -27.7200   -2.7750 H     3125  TIP3114     0.2052
   9539 OH2       -36.4170   -3.7070    6.2740 O.3   3126  TIP3115    -0.4105
   9540 H1        -37.0100   -3.2780    5.6570 H     3126  TIP3115     0.2052
   9541 H2        -36.6310   -4.6370    6.2050 H     3126  TIP3115     0.2052
   9542 OH2        -0.3130  -22.0680   29.6610 O.3   3127  TIP3116    -0.4105
   9543 H1          0.2200  -22.8610   29.7270 H     3127  TIP3116     0.2052
   9544 H2          0.0960  -21.5610   28.9590 H     3127  TIP3116     0.2052
   9545 OH2        12.1200    3.9480  -11.6810 O.3   3128  TIP3117    -0.4105
   9546 H1         12.1390    4.8310  -12.0500 H     3128  TIP3117     0.2052
   9547 H2         12.5510    4.0340  -10.8300 H     3128  TIP3117     0.2052
   9548 OH2       -11.2090  -15.4020    8.2330 O.3   3129  TIP3118    -0.4105
   9549 H1        -11.4770  -16.1940    7.7680 H     3129  TIP3118     0.2052
   9550 H2        -11.6440  -14.6900    7.7630 H     3129  TIP3118     0.2052
   9551 OH2         8.9690    8.6190   -6.8680 O.3   3130  TIP3119    -0.4105
   9552 H1          8.5520    8.4710   -6.0190 H     3130  TIP3119     0.2052
   9553 H2          8.5760    7.9650   -7.4460 H     3130  TIP3119     0.2052
   9554 OH2         0.4160   24.1600    4.3320 O.3   3131  TIP3120    -0.4105
   9555 H1         -0.0130   24.9440    4.6750 H     3131  TIP3120     0.2052
   9556 H2          1.3070   24.4440    4.1280 H     3131  TIP3120     0.2052
   9557 OH2        -7.6970   29.3520   -5.1300 O.3   3132  TIP3121    -0.4105
   9558 H1         -6.8530   28.9320   -4.9650 H     3132  TIP3121     0.2052
   9559 H2         -8.1960   29.2140   -4.3250 H     3132  TIP3121     0.2052
   9560 OH2         7.1910  -11.3710   -6.8300 O.3   3133  TIP3122    -0.4105
   9561 H1          7.8370  -11.7700   -6.2470 H     3133  TIP3122     0.2052
   9562 H2          6.9680  -12.0640   -7.4520 H     3133  TIP3122     0.2052
   9563 OH2        -5.3080  -17.3840  -23.4020 O.3   3134  TIP3123    -0.4105
   9564 H1         -4.4020  -17.4180  -23.7100 H     3134  TIP3123     0.2052
   9565 H2         -5.2700  -17.7230  -22.5070 H     3134  TIP3123     0.2052
   9566 OH2       -15.1530   24.9080   -5.8590 O.3   3135  TIP3124    -0.4105
   9567 H1        -16.0150   25.3230   -5.8270 H     3135  TIP3124     0.2052
   9568 H2        -14.6430   25.3610   -5.1860 H     3135  TIP3124     0.2052
   9569 OH2        -8.7180    9.8270   -1.0240 O.3   3136  TIP3125    -0.4105
   9570 H1         -8.9040   10.7510   -0.8530 H     3136  TIP3125     0.2052
   9571 H2         -8.0830    9.8390   -1.7390 H     3136  TIP3125     0.2052
   9572 OH2         9.0010    2.3120   17.4180 O.3   3137  TIP3126    -0.4105
   9573 H1          9.7730    2.6670   16.9780 H     3137  TIP3126     0.2052
   9574 H2          8.6680    1.6450   16.8180 H     3137  TIP3126     0.2052
   9575 OH2        -7.5000   -9.5880   13.8040 O.3   3138  TIP3127    -0.4105
   9576 H1         -7.7980   -8.6950   13.9770 H     3138  TIP3127     0.2052
   9577 H2         -6.5600   -9.5020   13.6470 H     3138  TIP3127     0.2052
   9578 OH2        16.9770   -1.3710   -6.0390 O.3   3139  TIP3128    -0.4105
   9579 H1         17.5240   -0.6010   -5.8830 H     3139  TIP3128     0.2052
   9580 H2         17.3310   -2.0400   -5.4530 H     3139  TIP3128     0.2052
   9581 OH2       -24.2860  -18.5180   -4.5260 O.3   3140  TIP3129    -0.4105
   9582 H1        -23.5940  -18.4320   -5.1810 H     3140  TIP3129     0.2052
   9583 H2        -25.0560  -18.7930   -5.0240 H     3140  TIP3129     0.2052
   9584 OH2         1.7190   15.6730  -15.6380 O.3   3141  TIP3130    -0.4105
   9585 H1          1.6240   16.6080  -15.8180 H     3141  TIP3130     0.2052
   9586 H2          1.1340   15.5110  -14.8980 H     3141  TIP3130     0.2052
   9587 OH2         1.8570   12.4570    6.2310 O.3   3142  TIP3131    -0.4105
   9588 H1          1.1120   12.0700    6.6920 H     3142  TIP3131     0.2052
   9589 H2          1.4620   13.0440    5.5870 H     3142  TIP3131     0.2052
   9590 OH2        -5.2210    0.7470   -7.7820 O.3   3143  TIP3132    -0.4105
   9591 H1         -5.4190   -0.1840   -7.6820 H     3143  TIP3132     0.2052
   9592 H2         -5.7770    1.1820   -7.1370 H     3143  TIP3132     0.2052
   9593 OH2        11.3300   12.9920  -20.2340 O.3   3144  TIP3133    -0.4105
   9594 H1         11.0690   13.4790  -19.4520 H     3144  TIP3133     0.2052
   9595 H2         11.3220   13.6440  -20.9360 H     3144  TIP3133     0.2052
   9596 OH2       -13.3050   -4.3000   16.3160 O.3   3145  TIP3134    -0.4105
   9597 H1        -14.2310   -4.1000   16.1830 H     3145  TIP3134     0.2052
   9598 H2        -12.9810   -3.5850   16.8630 H     3145  TIP3134     0.2052
   9599 OH2       -16.7850    2.9500   -4.7120 O.3   3146  TIP3135    -0.4105
   9600 H1        -17.0700    2.0380   -4.7660 H     3146  TIP3135     0.2052
   9601 H2        -17.0770    3.2420   -3.8480 H     3146  TIP3135     0.2052
   9602 OH2       -19.2260   30.8960    1.6870 O.3   3147  TIP3136    -0.4105
   9603 H1        -19.7760   30.9020    2.4700 H     3147  TIP3136     0.2052
   9604 H2        -19.4350   30.0680    1.2540 H     3147  TIP3136     0.2052
   9605 OH2        28.3730   11.7440    0.7910 O.3   3148  TIP3137    -0.4105
   9606 H1         27.7520   12.1130    1.4190 H     3148  TIP3137     0.2052
   9607 H2         28.8580   11.0870    1.2910 H     3148  TIP3137     0.2052
   9608 OH2       -20.1710  -19.0350   -0.7450 O.3   3149  TIP3138    -0.4105
   9609 H1        -20.2360  -18.8250   -1.6770 H     3149  TIP3138     0.2052
   9610 H2        -20.3760  -18.2140   -0.2990 H     3149  TIP3138     0.2052
   9611 OH2       -31.0930  -12.9090   -1.1900 O.3   3150  TIP3139    -0.4105
   9612 H1        -31.2160  -13.5880   -0.5270 H     3150  TIP3139     0.2052
   9613 H2        -30.4650  -12.3020   -0.7990 H     3150  TIP3139     0.2052
   9614 OH2       -10.3850    1.6680   -1.8580 O.3   3151  TIP3140    -0.4105
   9615 H1        -10.4410    2.3210   -2.5560 H     3151  TIP3140     0.2052
   9616 H2        -10.5990    0.8400   -2.2870 H     3151  TIP3140     0.2052
   9617 OH2       -14.5930   13.6610   -6.1940 O.3   3152  TIP3141    -0.4105
   9618 H1        -14.6900   13.8240   -5.2560 H     3152  TIP3141     0.2052
   9619 H2        -15.4700   13.7920   -6.5530 H     3152  TIP3141     0.2052
   9620 OH2       -11.8830   -9.8840  -20.8960 O.3   3153  TIP3142    -0.4105
   9621 H1        -12.4300   -9.2270  -20.4650 H     3153  TIP3142     0.2052
   9622 H2        -12.1610   -9.8620  -21.8120 H     3153  TIP3142     0.2052
   9623 OH2         6.3300    6.9800  -20.6140 O.3   3154  TIP3143    -0.4105
   9624 H1          6.5020    6.0380  -20.5850 H     3154  TIP3143     0.2052
   9625 H2          6.1840    7.2250  -19.7010 H     3154  TIP3143     0.2052
   9626 OH2        17.6700   -3.0630    8.7950 O.3   3155  TIP3144    -0.4105
   9627 H1         17.2960   -3.1180    9.6740 H     3155  TIP3144     0.2052
   9628 H2         18.5860   -3.3160    8.9070 H     3155  TIP3144     0.2052
   9629 OH2        -9.7900  -13.1230   12.0100 O.3   3156  TIP3145    -0.4105
   9630 H1        -10.5420  -13.6910   11.8420 H     3156  TIP3145     0.2052
   9631 H2         -9.0570  -13.7260   12.1320 H     3156  TIP3145     0.2052
   9632 OH2        16.0200   20.0390   28.6470 O.3   3157  TIP3146    -0.4105
   9633 H1         15.3520   20.5890   29.0560 H     3157  TIP3146     0.2052
   9634 H2         16.3130   19.4550   29.3470 H     3157  TIP3146     0.2052
   9635 OH2        22.9630    2.4440    0.0900 O.3   3158  TIP3147    -0.4105
   9636 H1         22.5540    1.6910   -0.3370 H     3158  TIP3147     0.2052
   9637 H2         23.5670    2.7920   -0.5650 H     3158  TIP3147     0.2052
   9638 OH2       -30.2110   -1.4480    5.9270 O.3   3159  TIP3148    -0.4105
   9639 H1        -30.6660   -2.2270    5.6060 H     3159  TIP3148     0.2052
   9640 H2        -30.6800   -0.7150    5.5290 H     3159  TIP3148     0.2052
   9641 OH2         9.9300   10.6740   -9.2020 O.3   3160  TIP3149    -0.4105
   9642 H1         10.5660   11.3840   -9.2870 H     3160  TIP3149     0.2052
   9643 H2         10.1180   10.2840   -8.3480 H     3160  TIP3149     0.2052
   9644 OH2        -4.2780    9.3630    8.5350 O.3   3161  TIP3150    -0.4105
   9645 H1         -4.4230    9.5190    7.6010 H     3161  TIP3150     0.2052
   9646 H2         -5.1330    9.0910    8.8680 H     3161  TIP3150     0.2052
   9647 OH2         1.2890   17.0870   22.2250 O.3   3162  TIP3151    -0.4105
   9648 H1          2.0830   16.6030   22.4490 H     3162  TIP3151     0.2052
   9649 H2          0.5770   16.5620   22.5910 H     3162  TIP3151     0.2052
   9650 OH2         8.4290  -20.1820   14.6050 O.3   3163  TIP3152    -0.4105
   9651 H1          8.4440  -20.5170   15.5020 H     3163  TIP3152     0.2052
   9652 H2          9.2090  -20.5570   14.1960 H     3163  TIP3152     0.2052
   9653 OH2         8.8880   -2.8460   13.7620 O.3   3164  TIP3153    -0.4105
   9654 H1          8.6250   -2.7560   14.6790 H     3164  TIP3153     0.2052
   9655 H2          8.3420   -2.2150   13.2930 H     3164  TIP3153     0.2052
   9656 OH2         5.1220    0.4180   18.0070 O.3   3165  TIP3154    -0.4105
   9657 H1          5.9520   -0.0020   18.2330 H     3165  TIP3154     0.2052
   9658 H2          4.6150   -0.2690   17.5750 H     3165  TIP3154     0.2052
   9659 OH2       -20.6230   -3.4600   14.6430 O.3   3166  TIP3155    -0.4105
   9660 H1        -21.3640   -3.1910   15.1860 H     3166  TIP3155     0.2052
   9661 H2        -19.9330   -2.8290   14.8470 H     3166  TIP3155     0.2052
   9662 OH2         0.6740  -21.4390   15.2490 O.3   3167  TIP3156    -0.4105
   9663 H1          1.0400  -20.6060   15.5470 H     3167  TIP3156     0.2052
   9664 H2         -0.0090  -21.1920   14.6260 H     3167  TIP3156     0.2052
   9665 OH2        16.4190  -12.4100   13.9920 O.3   3168  TIP3157    -0.4105
   9666 H1         15.4970  -12.5700   13.7920 H     3168  TIP3157     0.2052
   9667 H2         16.4590  -12.3990   14.9480 H     3168  TIP3157     0.2052
   9668 OH2        -2.1430  -29.1690   -9.4090 O.3   3169  TIP3158    -0.4105
   9669 H1         -1.7530  -29.8270   -8.8330 H     3169  TIP3158     0.2052
   9670 H2         -2.8740  -28.8120   -8.9040 H     3169  TIP3158     0.2052
   9671 OH2         7.8000   10.3830    3.3510 O.3   3170  TIP3159    -0.4105
   9672 H1          6.9360   10.5250    3.7370 H     3170  TIP3159     0.2052
   9673 H2          8.4150   10.5920    4.0540 H     3170  TIP3159     0.2052
   9674 OH2        -4.9940    6.4990    1.8100 O.3   3171  TIP3160    -0.4105
   9675 H1         -5.4830    5.6800    1.7240 H     3171  TIP3160     0.2052
   9676 H2         -5.4100    6.9500    2.5450 H     3171  TIP3160     0.2052
   9677 OH2        -9.6100    7.8720   14.1580 O.3   3172  TIP3161    -0.4105
   9678 H1        -10.4700    8.0980   13.8040 H     3172  TIP3161     0.2052
   9679 H2         -9.7740    7.6770   15.0810 H     3172  TIP3161     0.2052
   9680 OH2        -7.8090  -18.9960  -23.8190 O.3   3173  TIP3162    -0.4105
   9681 H1         -6.9380  -18.6070  -23.7480 H     3173  TIP3162     0.2052
   9682 H2         -7.7370  -19.8320  -23.3570 H     3173  TIP3162     0.2052
   9683 OH2       -23.8730    9.2090   14.5500 O.3   3174  TIP3163    -0.4105
   9684 H1        -24.3820    8.6190   13.9950 H     3174  TIP3163     0.2052
   9685 H2        -22.9930    8.8320   14.5570 H     3174  TIP3163     0.2052
   9686 OH2        -3.2230    8.1020  -14.2720 O.3   3175  TIP3164    -0.4105
   9687 H1         -2.7970    7.2880  -14.0030 H     3175  TIP3164     0.2052
   9688 H2         -2.9330    8.2380  -15.1740 H     3175  TIP3164     0.2052
   9689 OH2       -19.8000    0.2480   18.0400 O.3   3176  TIP3165    -0.4105
   9690 H1        -19.1830    0.8130   17.5760 H     3176  TIP3165     0.2052
   9691 H2        -19.9850    0.7130   18.8560 H     3176  TIP3165     0.2052
   9692 OH2       -24.8050  -13.4090    8.9190 O.3   3177  TIP3166    -0.4105
   9693 H1        -24.8540  -14.1790    8.3530 H     3177  TIP3166     0.2052
   9694 H2        -24.8010  -13.7630    9.8080 H     3177  TIP3166     0.2052
   9695 OH2        11.3900   11.9510   24.4960 O.3   3178  TIP3167    -0.4105
   9696 H1         11.4200   12.8270   24.8820 H     3178  TIP3167     0.2052
   9697 H2         12.1940   11.8890   23.9790 H     3178  TIP3167     0.2052
   9698 OH2        28.0790    0.2570    1.3290 O.3   3179  TIP3168    -0.4105
   9699 H1         27.3780    0.2310    0.6780 H     3179  TIP3168     0.2052
   9700 H2         28.8690    0.4470    0.8230 H     3179  TIP3168     0.2052
   9701 OH2       -20.2630  -23.7270  -17.7900 O.3   3180  TIP3169    -0.4105
   9702 H1        -20.6820  -23.6030  -18.6420 H     3180  TIP3169     0.2052
   9703 H2        -19.7970  -24.5590  -17.8710 H     3180  TIP3169     0.2052
   9704 OH2       -16.1830  -18.5090   -0.9580 O.3   3181  TIP3170    -0.4105
   9705 H1        -15.7440  -17.7720   -0.5330 H     3181  TIP3170     0.2052
   9706 H2        -15.5720  -18.7920   -1.6380 H     3181  TIP3170     0.2052
   9707 OH2        -3.4110   19.2820    1.8040 O.3   3182  TIP3171    -0.4105
   9708 H1         -2.5640   19.0550    2.1890 H     3182  TIP3171     0.2052
   9709 H2         -3.8980   19.6900    2.5200 H     3182  TIP3171     0.2052
   9710 OH2        10.9790   15.5010  -17.0170 O.3   3183  TIP3172    -0.4105
   9711 H1         10.7490   16.2970  -16.5370 H     3183  TIP3172     0.2052
   9712 H2         11.8860   15.3230  -16.7670 H     3183  TIP3172     0.2052
   9713 OH2         4.9470  -18.0740   19.4540 O.3   3184  TIP3173    -0.4105
   9714 H1          5.7230  -18.4630   19.0510 H     3184  TIP3173     0.2052
   9715 H2          5.1430  -17.1380   19.4970 H     3184  TIP3173     0.2052
   9716 OH2       -16.3230   -2.5920    5.7280 O.3   3185  TIP3174    -0.4105
   9717 H1        -16.5440   -2.0120    5.0000 H     3185  TIP3174     0.2052
   9718 H2        -16.7900   -2.2240    6.4780 H     3185  TIP3174     0.2052
   9719 OH2        -1.0020  -20.4150    6.5540 O.3   3186  TIP3175    -0.4105
   9720 H1         -1.5560  -19.7770    7.0040 H     3186  TIP3175     0.2052
   9721 H2         -1.4880  -20.6370    5.7600 H     3186  TIP3175     0.2052
   9722 OH2         5.8600   -3.4350   -9.9050 O.3   3187  TIP3176    -0.4105
   9723 H1          5.4620   -2.6670   -9.4930 H     3187  TIP3176     0.2052
   9724 H2          5.9910   -4.0520   -9.1850 H     3187  TIP3176     0.2052
   9725 OH2        -5.7060   -6.8890   26.0340 O.3   3188  TIP3177    -0.4105
   9726 H1         -6.4590   -6.5420   26.5130 H     3188  TIP3177     0.2052
   9727 H2         -5.9110   -6.7260   25.1140 H     3188  TIP3177     0.2052
   9728 OH2       -21.2450   17.9720    2.0690 O.3   3189  TIP3178    -0.4105
   9729 H1        -21.2320   17.0430    2.2980 H     3189  TIP3178     0.2052
   9730 H2        -21.1910   17.9850    1.1130 H     3189  TIP3178     0.2052
   9731 OH2        10.5570    6.5210   -0.4450 O.3   3190  TIP3179    -0.4105
   9732 H1          9.7990    7.1020   -0.3970 H     3190  TIP3179     0.2052
   9733 H2         10.3220    5.7730    0.1050 H     3190  TIP3179     0.2052
   9734 OH2        -1.8030  -21.7290   10.2330 O.3   3191  TIP3180    -0.4105
   9735 H1         -0.9150  -21.4660    9.9900 H     3191  TIP3180     0.2052
   9736 H2         -1.8200  -22.6750   10.0900 H     3191  TIP3180     0.2052
   9737 OH2        25.8700   -6.9390   -6.9810 O.3   3192  TIP3181    -0.4105
   9738 H1         25.7350   -7.8430   -7.2640 H     3192  TIP3181     0.2052
   9739 H2         25.4590   -6.8940   -6.1180 H     3192  TIP3181     0.2052
   9740 OH2         4.7600  -13.4410  -18.0680 O.3   3193  TIP3182    -0.4105
   9741 H1          4.6390  -14.2790  -17.6220 H     3193  TIP3182     0.2052
   9742 H2          4.2200  -12.8250  -17.5730 H     3193  TIP3182     0.2052
   9743 OH2       -12.3580   33.5820    5.8610 O.3   3194  TIP3183    -0.4105
   9744 H1        -12.7280   32.7090    5.7250 H     3194  TIP3183     0.2052
   9745 H2        -12.6900   34.1000    5.1270 H     3194  TIP3183     0.2052
   9746 OH2         7.1170  -29.1550    0.7490 O.3   3195  TIP3184    -0.4105
   9747 H1          7.1690  -28.3340    1.2380 H     3195  TIP3184     0.2052
   9748 H2          6.7260  -28.9120   -0.0900 H     3195  TIP3184     0.2052
   9749 OH2        14.6100   14.4480   17.8110 O.3   3196  TIP3185    -0.4105
   9750 H1         14.5450   14.9240   16.9830 H     3196  TIP3185     0.2052
   9751 H2         13.7270   14.4830   18.1780 H     3196  TIP3185     0.2052
   9752 OH2        10.7890   17.7860   21.6940 O.3   3197  TIP3186    -0.4105
   9753 H1         10.2650   17.3750   22.3820 H     3197  TIP3186     0.2052
   9754 H2         10.1460   18.1900   21.1120 H     3197  TIP3186     0.2052
   9755 OH2       -18.8020   10.9260   13.3790 O.3   3198  TIP3187    -0.4105
   9756 H1        -18.6150   11.8630   13.4370 H     3198  TIP3187     0.2052
   9757 H2        -17.9540   10.5240   13.1870 H     3198  TIP3187     0.2052
   9758 OH2       -19.4260    0.1090    8.5610 O.3   3199  TIP3188    -0.4105
   9759 H1        -19.9970    0.6750    9.0800 H     3199  TIP3188     0.2052
   9760 H2        -19.9390   -0.6880    8.4250 H     3199  TIP3188     0.2052
   9761 OH2        16.4160  -19.8850    4.4170 O.3   3200  TIP3189    -0.4105
   9762 H1         16.6060  -20.3870    5.2100 H     3200  TIP3189     0.2052
   9763 H2         16.9700  -20.2810    3.7440 H     3200  TIP3189     0.2052
   9764 OH2        -9.5420   20.7440    8.6090 O.3   3201  TIP3190    -0.4105
   9765 H1        -10.4410   20.9610    8.3620 H     3201  TIP3190     0.2052
   9766 H2         -9.4560   21.0640    9.5070 H     3201  TIP3190     0.2052
   9767 OH2        -0.3010   11.6220    7.7930 O.3   3202  TIP3191    -0.4105
   9768 H1         -0.4190   11.1000    8.5860 H     3202  TIP3191     0.2052
   9769 H2         -1.1780   11.9440    7.5850 H     3202  TIP3191     0.2052
   9770 OH2       -13.1610  -22.2710   -3.5960 O.3   3203  TIP3192    -0.4105
   9771 H1        -13.9830  -21.9290   -3.9480 H     3203  TIP3192     0.2052
   9772 H2        -12.5950  -22.3720   -4.3620 H     3203  TIP3192     0.2052
   9773 OH2         3.8940    4.9320  -20.5100 O.3   3204  TIP3193    -0.4105
   9774 H1          3.3720    5.6570  -20.8540 H     3204  TIP3193     0.2052
   9775 H2          3.6070    4.8400  -19.6010 H     3204  TIP3193     0.2052
   9776 OH2        -9.8610   18.3320   17.6910 O.3   3205  TIP3194    -0.4105
   9777 H1        -10.3570   18.0850   16.9110 H     3205  TIP3194     0.2052
   9778 H2         -9.0660   18.7430   17.3490 H     3205  TIP3194     0.2052
   9779 OH2         3.9640  -15.4530   23.2590 O.3   3206  TIP3195    -0.4105
   9780 H1          3.7740  -16.3520   23.5260 H     3206  TIP3195     0.2052
   9781 H2          4.5900  -15.5420   22.5410 H     3206  TIP3195     0.2052
   9782 OH2        -6.1450   -4.0630   20.5300 O.3   3207  TIP3196    -0.4105
   9783 H1         -6.8260   -4.5610   20.0790 H     3207  TIP3196     0.2052
   9784 H2         -6.0770   -4.4760   21.3920 H     3207  TIP3196     0.2052
   9785 OH2         4.0170    3.7610   -7.6990 O.3   3208  TIP3197    -0.4105
   9786 H1          4.5010    4.3900   -7.1630 H     3208  TIP3197     0.2052
   9787 H2          3.9630    2.9750   -7.1550 H     3208  TIP3197     0.2052
   9788 OH2         8.7460    9.3180   32.2450 O.3   3209  TIP3198    -0.4105
   9789 H1          9.5960    9.7560   32.2050 H     3209  TIP3198     0.2052
   9790 H2          8.1110   10.0310   32.3080 H     3209  TIP3198     0.2052
   9791 OH2        -4.2570   23.2230    1.2930 O.3   3210  TIP3199    -0.4105
   9792 H1         -4.1800   22.9030    2.1920 H     3210  TIP3199     0.2052
   9793 H2         -5.0580   23.7480    1.2930 H     3210  TIP3199     0.2052
   9794 OH2         1.1310  -11.9440  -20.8960 O.3   3211  TIP3200    -0.4105
   9795 H1          0.7080  -11.3580  -21.5230 H     3211  TIP3200     0.2052
   9796 H2          2.0330  -12.0200  -21.2080 H     3211  TIP3200     0.2052
   9797 OH2       -21.1700    7.7600    4.6160 O.3   3212  TIP3201    -0.4105
   9798 H1        -21.7060    8.2690    4.0080 H     3212  TIP3201     0.2052
   9799 H2        -21.7890    7.4380    5.2710 H     3212  TIP3201     0.2052
   9800 OH2        -6.4770  -15.0470  -22.0200 O.3   3213  TIP3202    -0.4105
   9801 H1         -6.0980  -15.1930  -22.8870 H     3213  TIP3202     0.2052
   9802 H2         -6.5480  -15.9230  -21.6390 H     3213  TIP3202     0.2052
   9803 OH2        10.1360  -21.0890   -7.5670 O.3   3214  TIP3203    -0.4105
   9804 H1         10.2940  -20.4000   -6.9220 H     3214  TIP3203     0.2052
   9805 H2         10.8390  -20.9830   -8.2080 H     3214  TIP3203     0.2052
   9806 OH2        10.6650   16.7640    9.7380 O.3   3215  TIP3204    -0.4105
   9807 H1         10.3090   16.2950    8.9830 H     3215  TIP3204     0.2052
   9808 H2          9.9150   16.8820   10.3220 H     3215  TIP3204     0.2052
   9809 OH2        -0.3430   10.7410   22.2080 O.3   3216  TIP3205    -0.4105
   9810 H1         -0.0900   11.5170   21.7100 H     3216  TIP3205     0.2052
   9811 H2          0.2890   10.0710   21.9480 H     3216  TIP3205     0.2052
   9812 OH2         5.9800   -2.1790   -5.6100 O.3   3217  TIP3206    -0.4105
   9813 H1          6.4340   -1.4850   -5.1310 H     3217  TIP3206     0.2052
   9814 H2          6.2400   -2.0510   -6.5220 H     3217  TIP3206     0.2052
   9815 OH2         0.3080    9.1340  -15.6050 O.3   3218  TIP3207    -0.4105
   9816 H1          0.0540    8.8900  -16.4950 H     3218  TIP3207     0.2052
   9817 H2         -0.1180    9.9780  -15.4570 H     3218  TIP3207     0.2052
   9818 OH2        -6.7970  -13.6540   15.4860 O.3   3219  TIP3208    -0.4105
   9819 H1         -6.6330  -14.1620   16.2810 H     3219  TIP3208     0.2052
   9820 H2         -7.0920  -12.8010   15.8030 H     3219  TIP3208     0.2052
   9821 OH2         3.4100  -17.9900   10.6210 O.3   3220  TIP3209    -0.4105
   9822 H1          3.3360  -17.4580    9.8290 H     3220  TIP3209     0.2052
   9823 H2          3.4930  -17.3540   11.3310 H     3220  TIP3209     0.2052
   9824 OH2        -2.6340   -4.6710    4.5580 O.3   3221  TIP3210    -0.4105
   9825 H1         -2.9270   -3.8050    4.8390 H     3221  TIP3210     0.2052
   9826 H2         -2.6330   -4.6260    3.6020 H     3221  TIP3210     0.2052
   9827 OH2        -6.7250    7.9460   -5.2040 O.3   3222  TIP3211    -0.4105
   9828 H1         -7.6740    8.0550   -5.1380 H     3222  TIP3211     0.2052
   9829 H2         -6.6080    7.2450   -5.8460 H     3222  TIP3211     0.2052
   9830 OH2         8.3810   20.7030    6.0830 O.3   3223  TIP3212    -0.4105
   9831 H1          8.4510   20.6030    5.1340 H     3223  TIP3212     0.2052
   9832 H2          9.2290   21.0570    6.3500 H     3223  TIP3212     0.2052
   9833 OH2        21.2900   -1.6930    0.8700 O.3   3224  TIP3213    -0.4105
   9834 H1         20.7040   -2.2350    0.3420 H     3224  TIP3213     0.2052
   9835 H2         21.5730   -2.2690    1.5810 H     3224  TIP3213     0.2052
   9836 OH2       -10.6160   -3.0540  -18.7080 O.3   3225  TIP3214    -0.4105
   9837 H1         -9.8420   -3.5970  -18.8590 H     3225  TIP3214     0.2052
   9838 H2        -11.2810   -3.6670  -18.3940 H     3225  TIP3214     0.2052
   9839 OH2        24.6750   17.4680   16.3520 O.3   3226  TIP3215    -0.4105
   9840 H1         24.1300   17.9550   16.9690 H     3226  TIP3215     0.2052
   9841 H2         25.3010   16.9980   16.9030 H     3226  TIP3215     0.2052
   9842 OH2        -9.9590  -21.6090  -14.7820 O.3   3227  TIP3216    -0.4105
   9843 H1         -9.7830  -21.4330  -15.7060 H     3227  TIP3216     0.2052
   9844 H2         -9.4720  -22.4120  -14.5940 H     3227  TIP3216     0.2052
   9845 OH2        19.6090    6.9210   11.8860 O.3   3228  TIP3217    -0.4105
   9846 H1         18.8920    7.5510   11.8160 H     3228  TIP3217     0.2052
   9847 H2         20.0990    7.2010   12.6590 H     3228  TIP3217     0.2052
   9848 OH2         3.8990   11.3300  -14.4260 O.3   3229  TIP3218    -0.4105
   9849 H1          3.1080   11.8340  -14.6170 H     3229  TIP3218     0.2052
   9850 H2          4.5950   11.9850  -14.3750 H     3229  TIP3218     0.2052
   9851 OH2       -26.6930   15.9270    7.3640 O.3   3230  TIP3219    -0.4105
   9852 H1        -26.4130   15.7540    6.4650 H     3230  TIP3219     0.2052
   9853 H2        -27.1910   16.7420    7.3070 H     3230  TIP3219     0.2052
   9854 OH2        28.6570   -4.3160    1.4270 O.3   3231  TIP3220    -0.4105
   9855 H1         27.7580   -4.5530    1.2020 H     3231  TIP3220     0.2052
   9856 H2         28.8590   -3.5720    0.8580 H     3231  TIP3220     0.2052
   9857 OH2       -12.4610    9.5250  -18.9590 O.3   3232  TIP3221    -0.4105
   9858 H1        -13.2470    8.9860  -18.8730 H     3232  TIP3221     0.2052
   9859 H2        -11.9620    9.3520  -18.1600 H     3232  TIP3221     0.2052
   9860 OH2        -7.3530  -12.9770    2.1960 O.3   3233  TIP3222    -0.4105
   9861 H1         -7.3080  -12.0960    2.5670 H     3233  TIP3222     0.2052
   9862 H2         -8.2890  -13.1410    2.0780 H     3233  TIP3222     0.2052
   9863 OH2       -18.8700  -17.5480   18.1200 O.3   3234  TIP3223    -0.4105
   9864 H1        -18.0030  -17.3920   18.4930 H     3234  TIP3223     0.2052
   9865 H2        -18.9130  -18.4970   18.0000 H     3234  TIP3223     0.2052
   9866 OH2       -16.6790    3.6220   -7.3610 O.3   3235  TIP3224    -0.4105
   9867 H1        -16.7060    3.3820   -6.4350 H     3235  TIP3224     0.2052
   9868 H2        -17.5940    3.7710   -7.5980 H     3235  TIP3224     0.2052
   9869 OH2        14.3120   -0.6700    4.5350 O.3   3236  TIP3225    -0.4105
   9870 H1         14.4500   -0.0520    5.2530 H     3236  TIP3225     0.2052
   9871 H2         13.4730   -1.0860    4.7330 H     3236  TIP3225     0.2052
   9872 OH2       -24.0370   26.0810    0.3520 O.3   3237  TIP3226    -0.4105
   9873 H1        -23.8200   27.0020    0.2070 H     3237  TIP3226     0.2052
   9874 H2        -23.6380   25.8700    1.1960 H     3237  TIP3226     0.2052
   9875 OH2        22.2980    3.1910   10.5800 O.3   3238  TIP3227    -0.4105
   9876 H1         22.5250    3.8290   11.2570 H     3238  TIP3227     0.2052
   9877 H2         21.3960    2.9400   10.7810 H     3238  TIP3227     0.2052
   9878 OH2       -14.6980   23.0340   13.2490 O.3   3239  TIP3228    -0.4105
   9879 H1        -15.5550   23.1070   12.8280 H     3239  TIP3228     0.2052
   9880 H2        -14.4750   22.1060   13.1780 H     3239  TIP3228     0.2052
   9881 OH2        12.3250   -8.0540    0.8240 O.3   3240  TIP3229    -0.4105
   9882 H1         11.4200   -8.3560    0.8940 H     3240  TIP3229     0.2052
   9883 H2         12.4890   -7.5930    1.6460 H     3240  TIP3229     0.2052
   9884 OH2         0.0440  -23.1210   -0.2690 O.3   3241  TIP3230    -0.4105
   9885 H1         -0.3910  -23.8120    0.2310 H     3241  TIP3230     0.2052
   9886 H2         -0.0540  -23.3880   -1.1830 H     3241  TIP3230     0.2052
   9887 OH2         4.8510  -19.1250   25.8950 O.3   3242  TIP3231    -0.4105
   9888 H1          4.2720  -18.6040   25.3390 H     3242  TIP3231     0.2052
   9889 H2          5.4790  -19.5160   25.2880 H     3242  TIP3231     0.2052
   9890 OH2       -34.4340   -0.9360    5.5650 O.3   3243  TIP3232    -0.4105
   9891 H1        -34.4500   -0.4600    4.7350 H     3243  TIP3232     0.2052
   9892 H2        -33.8550   -1.6810    5.4030 H     3243  TIP3232     0.2052
   9893 OH2        -5.7840  -25.2090    1.1360 O.3   3244  TIP3233    -0.4105
   9894 H1         -5.1400  -24.5200    1.3010 H     3244  TIP3233     0.2052
   9895 H2         -6.6300  -24.7620    1.1800 H     3244  TIP3233     0.2052
   9896 OH2         2.8430   -3.1500   -7.9760 O.3   3245  TIP3234    -0.4105
   9897 H1          2.3230   -2.6220   -7.3700 H     3245  TIP3234     0.2052
   9898 H2          3.0320   -3.9540   -7.4930 H     3245  TIP3234     0.2052
   9899 OH2        15.7800  -19.7650    9.6280 O.3   3246  TIP3235    -0.4105
   9900 H1         14.8540  -19.9030    9.4290 H     3246  TIP3235     0.2052
   9901 H2         15.8590  -18.8210    9.7600 H     3246  TIP3235     0.2052
   9902 OH2        32.0160  -10.8930   -3.4540 O.3   3247  TIP3236    -0.4105
   9903 H1         32.8060  -10.4160   -3.7100 H     3247  TIP3236     0.2052
   9904 H2         31.4350  -10.2210   -3.0960 H     3247  TIP3236     0.2052
   9905 OH2        -8.0990  -14.5420   -5.3930 O.3   3248  TIP3237    -0.4105
   9906 H1         -8.8110  -15.1210   -5.6640 H     3248  TIP3237     0.2052
   9907 H2         -7.5420  -14.4680   -6.1670 H     3248  TIP3237     0.2052
   9908 OH2        -8.1370   -7.6230   30.4560 O.3   3249  TIP3238    -0.4105
   9909 H1         -8.2100   -7.6990   31.4080 H     3249  TIP3238     0.2052
   9910 H2         -8.4240   -6.7300   30.2640 H     3249  TIP3238     0.2052
   9911 OH2        -5.0780   -6.2780   14.7100 O.3   3250  TIP3239    -0.4105
   9912 H1         -4.9920   -7.1930   14.9760 H     3250  TIP3239     0.2052
   9913 H2         -4.2470   -6.0740   14.2810 H     3250  TIP3239     0.2052
   9914 OH2       -21.1200    4.1410  -12.3850 O.3   3251  TIP3240    -0.4105
   9915 H1        -21.7490    3.6940  -12.9530 H     3251  TIP3240     0.2052
   9916 H2        -20.9710    4.9850  -12.8100 H     3251  TIP3240     0.2052
   9917 OH2       -28.0410    4.5330    0.9580 O.3   3252  TIP3241    -0.4105
   9918 H1        -28.3220    4.4350    0.0490 H     3252  TIP3241     0.2052
   9919 H2        -28.6580    3.9990    1.4590 H     3252  TIP3241     0.2052
   9920 OH2        -1.6580   13.3920   27.4900 O.3   3253  TIP3242    -0.4105
   9921 H1         -1.3650   12.5520   27.8430 H     3253  TIP3242     0.2052
   9922 H2         -2.1690   13.1600   26.7140 H     3253  TIP3242     0.2052
   9923 OH2        17.7530  -21.6840   -4.4930 O.3   3254  TIP3243    -0.4105
   9924 H1         18.3270  -21.7050   -3.7270 H     3254  TIP3243     0.2052
   9925 H2         17.9820  -22.4730   -4.9860 H     3254  TIP3243     0.2052
   9926 OH2       -10.3310  -22.9360  -11.0360 O.3   3255  TIP3244    -0.4105
   9927 H1        -10.9650  -23.5170  -11.4550 H     3255  TIP3244     0.2052
   9928 H2        -10.1370  -23.3550  -10.1980 H     3255  TIP3244     0.2052
   9929 OH2        -6.4030   21.4430   10.4520 O.3   3256  TIP3245    -0.4105
   9930 H1         -6.4220   20.5440   10.1240 H     3256  TIP3245     0.2052
   9931 H2         -6.3440   21.9840    9.6650 H     3256  TIP3245     0.2052
   9932 OH2        11.3520   19.2140  -12.4670 O.3   3257  TIP3246    -0.4105
   9933 H1         11.3170   20.1380  -12.2190 H     3257  TIP3246     0.2052
   9934 H2         11.9680   18.8230  -11.8470 H     3257  TIP3246     0.2052
   9935 OH2        -5.5920  -15.5060   -4.3790 O.3   3258  TIP3247    -0.4105
   9936 H1         -4.7670  -15.0470   -4.2250 H     3258  TIP3247     0.2052
   9937 H2         -6.0660  -14.9480   -4.9960 H     3258  TIP3247     0.2052
   9938 OH2        26.0050   20.0400   15.1730 O.3   3259  TIP3248    -0.4105
   9939 H1         26.7330   20.1890   15.7760 H     3259  TIP3248     0.2052
   9940 H2         26.3880   19.5380   14.4540 H     3259  TIP3248     0.2052
   9941 OH2        27.3780   -5.8960    3.6450 O.3   3260  TIP3249    -0.4105
   9942 H1         27.4670   -5.6700    4.5710 H     3260  TIP3249     0.2052
   9943 H2         27.9110   -5.2450    3.1880 H     3260  TIP3249     0.2052
   9944 OH2        37.0110    5.3170   -7.3120 O.3   3261  TIP3250    -0.4105
   9945 H1         36.9420    5.3080   -8.2670 H     3261  TIP3250     0.2052
   9946 H2         36.3040    4.7450   -7.0150 H     3261  TIP3250     0.2052
   9947 OH2       -10.4480   24.9750    6.0160 O.3   3262  TIP3251    -0.4105
   9948 H1        -11.3880   25.0770    5.8680 H     3262  TIP3251     0.2052
   9949 H2        -10.0390   25.4140    5.2700 H     3262  TIP3251     0.2052
   9950 OH2       -24.5140   -7.6380   16.7870 O.3   3263  TIP3252    -0.4105
   9951 H1        -24.1510   -8.4530   17.1330 H     3263  TIP3252     0.2052
   9952 H2        -25.1050   -7.3280   17.4730 H     3263  TIP3252     0.2052
   9953 OH2        -4.6160   -3.7140  -28.9300 O.3   3264  TIP3253    -0.4105
   9954 H1         -4.4580   -3.4940  -29.8480 H     3264  TIP3253     0.2052
   9955 H2         -3.8210   -3.4330  -28.4770 H     3264  TIP3253     0.2052
   9956 OH2        24.3100  -28.4130   -1.8660 O.3   3265  TIP3254    -0.4105
   9957 H1         23.8160  -27.7920   -1.3310 H     3265  TIP3254     0.2052
   9958 H2         23.8570  -29.2480   -1.7450 H     3265  TIP3254     0.2052
   9959 OH2        15.9790  -10.5910  -10.8800 O.3   3266  TIP3255    -0.4105
   9960 H1         16.2600   -9.6770  -10.8250 H     3266  TIP3255     0.2052
   9961 H2         15.0310  -10.5580  -10.7550 H     3266  TIP3255     0.2052
   9962 OH2        24.5950  -27.9760    1.7110 O.3   3267  TIP3256    -0.4105
   9963 H1         23.8530  -28.5730    1.8100 H     3267  TIP3256     0.2052
   9964 H2         25.2090  -28.4470    1.1480 H     3267  TIP3256     0.2052
   9965 OH2       -11.2590  -13.7920    6.0520 O.3   3268  TIP3257    -0.4105
   9966 H1        -11.7760  -13.6700    5.2550 H     3268  TIP3257     0.2052
   9967 H2        -10.8310  -14.6400    5.9330 H     3268  TIP3257     0.2052
   9968 OH2        14.5480  -17.8640  -13.5070 O.3   3269  TIP3258    -0.4105
   9969 H1         15.3610  -17.6260  -13.0620 H     3269  TIP3258     0.2052
   9970 H2         14.6360  -17.4920  -14.3840 H     3269  TIP3258     0.2052
   9971 OH2        21.9700   14.5900  -20.8220 O.3   3270  TIP3259    -0.4105
   9972 H1         21.7750   15.4120  -20.3720 H     3270  TIP3259     0.2052
   9973 H2         21.9670   13.9300  -20.1290 H     3270  TIP3259     0.2052
   9974 OH2       -17.4800   15.6260   -4.4040 O.3   3271  TIP3260    -0.4105
   9975 H1        -18.2000   15.9510   -4.9440 H     3271  TIP3260     0.2052
   9976 H2        -17.5540   14.6730   -4.4530 H     3271  TIP3260     0.2052
   9977 OH2         3.4770   26.6880    1.9750 O.3   3272  TIP3261    -0.4105
   9978 H1          3.8130   26.1330    1.2720 H     3272  TIP3261     0.2052
   9979 H2          3.4320   27.5630    1.5890 H     3272  TIP3261     0.2052
   9980 OH2       -10.0750   -2.0490   19.3180 O.3   3273  TIP3262    -0.4105
   9981 H1         -9.3240   -1.7730   19.8440 H     3273  TIP3262     0.2052
   9982 H2        -10.0220   -3.0050   19.3080 H     3273  TIP3262     0.2052
   9983 OH2        -4.6200   -8.3990  -12.9380 O.3   3274  TIP3263    -0.4105
   9984 H1         -3.7170   -8.6950  -12.8250 H     3274  TIP3263     0.2052
   9985 H2         -4.5480   -7.6050  -13.4670 H     3274  TIP3263     0.2052
   9986 OH2        -2.6390  -25.1550  -17.0960 O.3   3275  TIP3264    -0.4105
   9987 H1         -2.6610  -25.5040  -17.9870 H     3275  TIP3264     0.2052
   9988 H2         -3.5080  -24.7740  -16.9660 H     3275  TIP3264     0.2052
   9989 OH2       -22.6940    9.8740    6.9710 O.3   3276  TIP3265    -0.4105
   9990 H1        -22.8720   10.0370    6.0450 H     3276  TIP3265     0.2052
   9991 H2        -23.4550    9.3830    7.2790 H     3276  TIP3265     0.2052
   9992 OH2        22.3310   15.4660   11.8130 O.3   3277  TIP3266    -0.4105
   9993 H1         22.8960   16.0200   12.3520 H     3277  TIP3266     0.2052
   9994 H2         22.7120   14.5910   11.8870 H     3277  TIP3266     0.2052
   9995 OH2        -0.6960  -19.8230  -14.6360 O.3   3278  TIP3267    -0.4105
   9996 H1         -1.5090  -19.4620  -14.9900 H     3278  TIP3267     0.2052
   9997 H2         -0.7740  -19.7050  -13.6890 H     3278  TIP3267     0.2052
   9998 OH2        -7.5190  -14.4400   24.5500 O.3   3279  TIP3268    -0.4105
   9999 H1         -7.4040  -14.9580   23.7530 H     3279  TIP3268     0.2052
  10000 H2         -7.2940  -15.0410   25.2610 H     3279  TIP3268     0.2052
  10001 OH2        -7.7380   20.5590  -16.3360 O.3   3280  TIP3269    -0.4105
  10002 H1         -8.5290   20.0550  -16.5270 H     3280  TIP3269     0.2052
  10003 H2         -7.8770   20.8970  -15.4520 H     3280  TIP3269     0.2052
  10004 OH2        16.2980  -10.5250  -15.8490 O.3   3281  TIP3270    -0.4105
  10005 H1         16.2760   -9.5740  -15.9510 H     3281  TIP3270     0.2052
  10006 H2         15.4950  -10.7350  -15.3730 H     3281  TIP3270     0.2052
  10007 OH2        -6.3530  -10.6910    7.3140 O.3   3282  TIP3271    -0.4105
  10008 H1         -5.7130  -10.4490    6.6440 H     3282  TIP3271     0.2052
  10009 H2         -6.5040   -9.8830    7.8050 H     3282  TIP3271     0.2052
  10010 OH2        11.3180   19.3360    2.1710 O.3   3283  TIP3272    -0.4105
  10011 H1         12.1010   19.8840    2.2200 H     3283  TIP3272     0.2052
  10012 H2         11.5770   18.5090    2.5790 H     3283  TIP3272     0.2052
  10013 OH2        -7.2380  -18.8650  -20.6500 O.3   3284  TIP3273    -0.4105
  10014 H1         -7.4600  -19.7940  -20.5800 H     3284  TIP3273     0.2052
  10015 H2         -6.3230  -18.8580  -20.9300 H     3284  TIP3273     0.2052
  10016 OH2       -22.2160   -8.9760   18.3420 O.3   3285  TIP3274    -0.4105
  10017 H1        -21.6360   -8.5410   17.7170 H     3285  TIP3274     0.2052
  10018 H2        -22.1610   -8.4390   19.1330 H     3285  TIP3274     0.2052
  10019 OH2       -11.2190  -23.6280    1.4320 O.3   3286  TIP3275    -0.4105
  10020 H1        -10.8740  -22.7390    1.5130 H     3286  TIP3275     0.2052
  10021 H2        -11.1010  -23.8480    0.5070 H     3286  TIP3275     0.2052
  10022 OH2       -15.1440   32.0010   -0.0240 O.3   3287  TIP3276    -0.4105
  10023 H1        -15.4880   32.1710    0.8530 H     3287  TIP3276     0.2052
  10024 H2        -14.2320   32.2880    0.0160 H     3287  TIP3276     0.2052
  10025 OH2        10.6910   13.1370   29.6070 O.3   3288  TIP3277    -0.4105
  10026 H1         11.6160   13.0250   29.3880 H     3288  TIP3277     0.2052
  10027 H2         10.6900   13.3670   30.5360 H     3288  TIP3277     0.2052
  10028 OH2         0.4240   26.8510    7.8360 O.3   3289  TIP3278    -0.4105
  10029 H1          0.4760   27.0200    6.8950 H     3289  TIP3278     0.2052
  10030 H2         -0.0650   26.0310    7.9060 H     3289  TIP3278     0.2052
  10031 OH2         0.8540    8.5090   21.7380 O.3   3290  TIP3279    -0.4105
  10032 H1          0.4540    7.6850   21.4580 H     3290  TIP3279     0.2052
  10033 H2          1.7900    8.3140   21.7920 H     3290  TIP3279     0.2052
  10034 OH2       -11.7670   18.8910   15.6860 O.3   3291  TIP3280    -0.4105
  10035 H1        -12.2110   19.4030   16.3620 H     3291  TIP3280     0.2052
  10036 H2        -11.3110   19.5420   15.1530 H     3291  TIP3280     0.2052
  10037 OH2       -26.0790   -7.4620   -6.1690 O.3   3292  TIP3281    -0.4105
  10038 H1        -25.6160   -8.2160   -6.5350 H     3292  TIP3281     0.2052
  10039 H2        -25.7130   -6.7080   -6.6310 H     3292  TIP3281     0.2052
  10040 OH2       -20.3230    8.0740   -0.6550 O.3   3293  TIP3282    -0.4105
  10041 H1        -19.6730    8.5490   -0.1380 H     3293  TIP3282     0.2052
  10042 H2        -20.5400    8.6680   -1.3730 H     3293  TIP3282     0.2052
  10043 OH2        -1.3230   -7.1500    7.4620 O.3   3294  TIP3283    -0.4105
  10044 H1         -0.5270   -6.7430    7.1200 H     3294  TIP3283     0.2052
  10045 H2         -1.3560   -6.8790    8.3800 H     3294  TIP3283     0.2052
  10046 OH2        17.9460    4.8640  -17.0970 O.3   3295  TIP3284    -0.4105
  10047 H1         17.5820    4.5970  -17.9410 H     3295  TIP3284     0.2052
  10048 H2         18.7120    5.3920  -17.3220 H     3295  TIP3284     0.2052
  10049 OH2         0.6370    3.2990   10.2390 O.3   3296  TIP3285    -0.4105
  10050 H1          0.3780    2.4100   10.4800 H     3296  TIP3285     0.2052
  10051 H2          1.5570    3.2210    9.9850 H     3296  TIP3285     0.2052
  10052 OH2         1.2520   26.4060   14.4280 O.3   3297  TIP3286    -0.4105
  10053 H1          1.7870   26.4010   15.2220 H     3297  TIP3286     0.2052
  10054 H2          1.3280   27.3000   14.0930 H     3297  TIP3286     0.2052
  10055 OH2         3.0040   16.5940  -12.1310 O.3   3298  TIP3287    -0.4105
  10056 H1          3.1650   16.0590  -11.3540 H     3298  TIP3287     0.2052
  10057 H2          3.3870   16.0940  -12.8520 H     3298  TIP3287     0.2052
  10058 OH2         7.3370   -5.6060    3.0860 O.3   3299  TIP3288    -0.4105
  10059 H1          8.0890   -5.1300    3.4400 H     3299  TIP3288     0.2052
  10060 H2          6.5770   -5.1830    3.4840 H     3299  TIP3288     0.2052
  10061 OH2        10.2070    1.0030   -5.9030 O.3   3300  TIP3289    -0.4105
  10062 H1         10.8550    0.4510   -6.3410 H     3300  TIP3289     0.2052
  10063 H2         10.4580    1.8970   -6.1330 H     3300  TIP3289     0.2052
  10064 OH2        15.1660  -28.2120    8.3220 O.3   3301  TIP3290    -0.4105
  10065 H1         15.0330  -27.8320    7.4540 H     3301  TIP3290     0.2052
  10066 H2         14.2880  -28.2640    8.6990 H     3301  TIP3290     0.2052
  10067 OH2       -27.9160   -3.9870   -4.6080 O.3   3302  TIP3291    -0.4105
  10068 H1        -28.2230   -3.1450   -4.9430 H     3302  TIP3291     0.2052
  10069 H2        -28.7010   -4.5320   -4.5720 H     3302  TIP3291     0.2052
  10070 OH2        33.3300    5.1350    0.0900 O.3   3303  TIP3292    -0.4105
  10071 H1         32.5500    5.6760    0.2150 H     3303  TIP3292     0.2052
  10072 H2         33.5030    5.1780   -0.8500 H     3303  TIP3292     0.2052
  10073 OH2        -6.4780   21.0500    0.4800 O.3   3304  TIP3293    -0.4105
  10074 H1         -6.1760   21.8880    0.1310 H     3304  TIP3293     0.2052
  10075 H2         -6.1190   20.3960   -0.1200 H     3304  TIP3293     0.2052
  10076 OH2        19.6950    8.1710   -2.9850 O.3   3305  TIP3294    -0.4105
  10077 H1         18.8710    8.4860   -3.3580 H     3305  TIP3294     0.2052
  10078 H2         19.9980    8.8900   -2.4320 H     3305  TIP3294     0.2052
  10079 OH2       -32.3710  -11.3230    4.5940 O.3   3306  TIP3295    -0.4105
  10080 H1        -31.8640  -11.6820    3.8660 H     3306  TIP3295     0.2052
  10081 H2        -32.6590  -12.0910    5.0880 H     3306  TIP3295     0.2052
  10082 OH2         0.0130   -5.8570   -8.4080 O.3   3307  TIP3296    -0.4105
  10083 H1         -0.8690   -6.0840   -8.7030 H     3307  TIP3296     0.2052
  10084 H2          0.2370   -6.5390   -7.7750 H     3307  TIP3296     0.2052
  10085 OH2         8.3110    4.3590   19.1690 O.3   3308  TIP3297    -0.4105
  10086 H1          8.9200    4.3610   19.9070 H     3308  TIP3297     0.2052
  10087 H2          8.7370    3.8150   18.5070 H     3308  TIP3297     0.2052
  10088 OH2         2.4290   27.7360   17.0170 O.3   3309  TIP3298    -0.4105
  10089 H1          3.3280   27.4190   17.1010 H     3309  TIP3298     0.2052
  10090 H2          1.9170   27.1560   17.5810 H     3309  TIP3298     0.2052
  10091 OH2        -7.7740   -4.7660  -23.6890 O.3   3310  TIP3299    -0.4105
  10092 H1         -6.9270   -4.4450  -23.3800 H     3310  TIP3299     0.2052
  10093 H2         -7.7350   -4.6670  -24.6410 H     3310  TIP3299     0.2052
  10094 OH2         6.4320   -9.9950   -4.6000 O.3   3311  TIP3300    -0.4105
  10095 H1          6.0250   -9.2920   -5.1070 H     3311  TIP3300     0.2052
  10096 H2          6.7050  -10.6360   -5.2560 H     3311  TIP3300     0.2052
  10097 OH2        -0.3700  -26.8610  -16.2930 O.3   3312  TIP3301    -0.4105
  10098 H1         -1.3020  -26.6860  -16.4250 H     3312  TIP3301     0.2052
  10099 H2         -0.3340  -27.7780  -16.0220 H     3312  TIP3301     0.2052
  10100 OH2         0.4250   -1.8410   11.4270 O.3   3313  TIP3302    -0.4105
  10101 H1          0.2410   -1.3160   10.6480 H     3313  TIP3302     0.2052
  10102 H2         -0.0740   -1.4170   12.1250 H     3313  TIP3302     0.2052
  10103 OH2        19.8910  -36.7600    1.4710 O.3   3314  TIP3303    -0.4105
  10104 H1         19.7570  -37.6870    1.6690 H     3314  TIP3303     0.2052
  10105 H2         19.0140  -36.3790    1.4990 H     3314  TIP3303     0.2052
  10106 OH2       -17.7470    5.7780   -9.0690 O.3   3315  TIP3304    -0.4105
  10107 H1        -17.3690    6.3630   -9.7270 H     3315  TIP3304     0.2052
  10108 H2        -17.1140    5.7850   -8.3510 H     3315  TIP3304     0.2052
  10109 OH2        -5.1110  -18.8990   34.1710 O.3   3316  TIP3305    -0.4105
  10110 H1         -6.0440  -18.9300   33.9560 H     3316  TIP3305     0.2052
  10111 H2         -4.9740  -18.0190   34.5200 H     3316  TIP3305     0.2052
  10112 OH2        12.7360   -0.8990   12.9120 O.3   3317  TIP3306    -0.4105
  10113 H1         13.1150   -0.2570   13.5120 H     3317  TIP3306     0.2052
  10114 H2         13.2260   -1.7040   13.0810 H     3317  TIP3306     0.2052
  10115 OH2       -12.9840  -11.2820   19.4430 O.3   3318  TIP3307    -0.4105
  10116 H1        -13.8940  -10.9940   19.3640 H     3318  TIP3307     0.2052
  10117 H2        -12.8320  -11.3400   20.3860 H     3318  TIP3307     0.2052
  10118 OH2       -12.2000   34.1520   10.5240 O.3   3319  TIP3308    -0.4105
  10119 H1        -11.3750   33.6710   10.5860 H     3319  TIP3308     0.2052
  10120 H2        -12.8710   33.5080   10.7510 H     3319  TIP3308     0.2052
  10121 OH2         3.3870  -21.8710   -5.3550 O.3   3320  TIP3309    -0.4105
  10122 H1          3.2420  -22.8150   -5.3080 H     3320  TIP3309     0.2052
  10123 H2          3.6650  -21.7160   -6.2580 H     3320  TIP3309     0.2052
  10124 OH2       -10.5390  -13.8770  -14.8400 O.3   3321  TIP3310    -0.4105
  10125 H1        -10.0590  -13.0720  -14.6460 H     3321  TIP3310     0.2052
  10126 H2        -11.2240  -13.6060  -15.4520 H     3321  TIP3310     0.2052
  10127 OH2         4.5060    8.3180    6.6210 O.3   3322  TIP3311    -0.4105
  10128 H1          5.0600    7.9250    5.9470 H     3322  TIP3311     0.2052
  10129 H2          4.9900    8.1870    7.4360 H     3322  TIP3311     0.2052
  10130 OH2       -11.3640   -4.1320   -1.7480 O.3   3323  TIP3312    -0.4105
  10131 H1        -11.2510   -4.7370   -1.0150 H     3323  TIP3312     0.2052
  10132 H2        -10.5150   -4.1300   -2.1900 H     3323  TIP3312     0.2052
  10133 OH2        22.8670  -29.8780    2.2350 O.3   3324  TIP3313    -0.4105
  10134 H1         21.9890  -30.1180    2.5290 H     3324  TIP3313     0.2052
  10135 H2         23.3790  -30.6820    2.3230 H     3324  TIP3313     0.2052
  10136 OH2         7.5130  -11.8460  -14.3290 O.3   3325  TIP3314    -0.4105
  10137 H1          7.7960  -11.9270  -13.4180 H     3325  TIP3314     0.2052
  10138 H2          8.0940  -12.4310  -14.8140 H     3325  TIP3314     0.2052
  10139 OH2        15.2800    6.2440  -11.1180 O.3   3326  TIP3315    -0.4105
  10140 H1         15.1950    6.5810  -12.0100 H     3326  TIP3315     0.2052
  10141 H2         14.5330    6.6160  -10.6490 H     3326  TIP3315     0.2052
  10142 OH2         6.0760   -3.1930    5.0700 O.3   3327  TIP3316    -0.4105
  10143 H1          5.2770   -2.7760    4.7450 H     3327  TIP3316     0.2052
  10144 H2          5.9110   -3.3330    6.0020 H     3327  TIP3316     0.2052
  10145 OH2       -13.9590    8.5240  -15.6230 O.3   3328  TIP3317    -0.4105
  10146 H1        -14.3100    8.0330  -16.3660 H     3328  TIP3317     0.2052
  10147 H2        -13.8270    7.8660  -14.9400 H     3328  TIP3317     0.2052
  10148 OH2         4.1170   -7.9380  -19.0480 O.3   3329  TIP3318    -0.4105
  10149 H1          3.2560   -8.0240  -19.4580 H     3329  TIP3318     0.2052
  10150 H2          4.7380   -8.0800  -19.7620 H     3329  TIP3318     0.2052
  10151 OH2        30.3720   12.8930   -6.6050 O.3   3330  TIP3319    -0.4105
  10152 H1         29.4670   13.1560   -6.4420 H     3330  TIP3319     0.2052
  10153 H2         30.3040   12.0080   -6.9640 H     3330  TIP3319     0.2052
  10154 OH2         7.6080    8.5130  -23.7890 O.3   3331  TIP3320    -0.4105
  10155 H1          7.9200    8.9000  -22.9710 H     3331  TIP3320     0.2052
  10156 H2          6.9190    9.1070  -24.0870 H     3331  TIP3320     0.2052
  10157 OH2        13.7990  -17.5900   11.6320 O.3   3332  TIP3321    -0.4105
  10158 H1         13.2280  -16.8230   11.5680 H     3332  TIP3321     0.2052
  10159 H2         14.3900  -17.5120   10.8830 H     3332  TIP3321     0.2052
  10160 OH2        13.9660    7.1520   -3.6770 O.3   3333  TIP3322    -0.4105
  10161 H1         14.7030    7.2140   -3.0690 H     3333  TIP3322     0.2052
  10162 H2         13.2120    7.4600   -3.1730 H     3333  TIP3322     0.2052
  10163 OH2         1.8100  -21.1870  -13.0290 O.3   3334  TIP3323    -0.4105
  10164 H1          0.9900  -20.9330  -12.6060 H     3334  TIP3323     0.2052
  10165 H2          1.9140  -20.5620  -13.7460 H     3334  TIP3323     0.2052
  10166 OH2         4.9870  -24.7390   19.1310 O.3   3335  TIP3324    -0.4105
  10167 H1          4.8090  -24.2890   18.3050 H     3335  TIP3324     0.2052
  10168 H2          5.5530  -25.4710   18.8870 H     3335  TIP3324     0.2052
  10169 OH2        -8.4440    1.5530   -9.3610 O.3   3336  TIP3325    -0.4105
  10170 H1         -7.8670    1.0820   -9.9620 H     3336  TIP3325     0.2052
  10171 H2         -8.1270    2.4560   -9.3820 H     3336  TIP3325     0.2052
  10172 OH2        18.6720   15.9950    5.4970 O.3   3337  TIP3326    -0.4105
  10173 H1         18.4100   16.7270    4.9390 H     3337  TIP3326     0.2052
  10174 H2         17.9500   15.8940    6.1170 H     3337  TIP3326     0.2052
  10175 OH2        12.5470  -32.0480    1.0450 O.3   3338  TIP3327    -0.4105
  10176 H1         11.9980  -32.7400    1.4150 H     3338  TIP3327     0.2052
  10177 H2         12.7210  -32.3340    0.1480 H     3338  TIP3327     0.2052
  10178 OH2       -18.1360   23.7410  -10.9190 O.3   3339  TIP3328    -0.4105
  10179 H1        -19.0460   23.4750  -10.7940 H     3339  TIP3328     0.2052
  10180 H2        -18.1770   24.6900  -11.0390 H     3339  TIP3328     0.2052
  10181 OH2         3.1420   -8.8750    3.7570 O.3   3340  TIP3329    -0.4105
  10182 H1          3.9410   -8.9410    3.2340 H     3340  TIP3329     0.2052
  10183 H2          2.7180   -9.7270    3.6570 H     3340  TIP3329     0.2052
  10184 OH2       -17.7170   26.0610   -5.5180 O.3   3341  TIP3330    -0.4105
  10185 H1        -18.2890   26.3020   -4.7890 H     3341  TIP3330     0.2052
  10186 H2        -18.0790   26.5280   -6.2710 H     3341  TIP3330     0.2052
  10187 OH2        -7.7250    6.8730    6.8490 O.3   3342  TIP3331    -0.4105
  10188 H1         -7.2330    6.0610    6.9670 H     3342  TIP3331     0.2052
  10189 H2         -8.6000    6.5870    6.5850 H     3342  TIP3331     0.2052
  10190 OH2         1.0350    1.6150  -11.6260 O.3   3343  TIP3332    -0.4105
  10191 H1          1.5460    1.6790  -10.8200 H     3343  TIP3332     0.2052
  10192 H2          1.1000    2.4840  -12.0220 H     3343  TIP3332     0.2052
  10193 OH2        32.6860   12.7050    4.0950 O.3   3344  TIP3333    -0.4105
  10194 H1         32.4580   12.5110    5.0050 H     3344  TIP3333     0.2052
  10195 H2         32.5980   13.6550    4.0230 H     3344  TIP3333     0.2052
  10196 OH2        18.5650  -18.4320   -2.8550 O.3   3345  TIP3334    -0.4105
  10197 H1         17.6170  -18.3090   -2.8960 H     3345  TIP3334     0.2052
  10198 H2         18.6810  -19.2620   -2.3920 H     3345  TIP3334     0.2052
  10199 OH2        -2.0150   -3.3610   15.2450 O.3   3346  TIP3335    -0.4105
  10200 H1         -2.1930   -4.1450   15.7650 H     3346  TIP3335     0.2052
  10201 H2         -1.1150   -3.4740   14.9400 H     3346  TIP3335     0.2052
  10202 OH2       -10.2830   27.1420  -18.2270 O.3   3347  TIP3336    -0.4105
  10203 H1         -9.3810   27.3290  -18.4860 H     3347  TIP3336     0.2052
  10204 H2        -10.2090   26.4160  -17.6070 H     3347  TIP3336     0.2052
  10205 OH2        10.2800    1.3920  -23.8300 O.3   3348  TIP3337    -0.4105
  10206 H1         10.8100    0.5970  -23.8860 H     3348  TIP3337     0.2052
  10207 H2         10.5320    1.7890  -22.9960 H     3348  TIP3337     0.2052
  10208 OH2         5.0140    6.0460  -25.7900 O.3   3349  TIP3338    -0.4105
  10209 H1          5.5640    5.6180  -26.4450 H     3349  TIP3338     0.2052
  10210 H2          5.3900    5.7810  -24.9500 H     3349  TIP3338     0.2052
  10211 OH2        -2.9450   14.5730  -11.9360 O.3   3350  TIP3339    -0.4105
  10212 H1         -2.2960   14.0150  -11.5070 H     3350  TIP3339     0.2052
  10213 H2         -3.0730   14.1750  -12.7970 H     3350  TIP3339     0.2052
  10214 OH2       -32.5580   15.9810    5.1310 O.3   3351  TIP3340    -0.4105
  10215 H1        -33.3250   16.1050    5.6920 H     3351  TIP3340     0.2052
  10216 H2        -32.9110   15.9680    4.2420 H     3351  TIP3340     0.2052
  10217 OH2       -19.2990   22.6480   -4.4510 O.3   3352  TIP3341    -0.4105
  10218 H1        -19.9210   22.4140   -5.1410 H     3352  TIP3341     0.2052
  10219 H2        -18.7620   21.8630   -4.3360 H     3352  TIP3341     0.2052
  10220 OH2        -8.7000   -6.2150  -29.9090 O.3   3353  TIP3342    -0.4105
  10221 H1         -8.2260   -5.5190  -29.4530 H     3353  TIP3342     0.2052
  10222 H2         -8.5850   -6.9870  -29.3550 H     3353  TIP3342     0.2052
  10223 OH2       -11.2010   -8.1000    5.7180 O.3   3354  TIP3343    -0.4105
  10224 H1        -11.4550   -8.3080    4.8190 H     3354  TIP3343     0.2052
  10225 H2        -10.2690   -8.3130    5.7590 H     3354  TIP3343     0.2052
  10226 OH2         8.6750  -13.8280    6.6500 O.3   3355  TIP3344    -0.4105
  10227 H1          7.7960  -13.4530    6.7020 H     3355  TIP3344     0.2052
  10228 H2          9.2160  -13.2460    7.1840 H     3355  TIP3344     0.2052
  10229 OH2         9.6320  -21.3870    8.3610 O.3   3356  TIP3345    -0.4105
  10230 H1          8.8150  -21.7910    8.0680 H     3356  TIP3345     0.2052
  10231 H2          9.5830  -21.4130    9.3160 H     3356  TIP3345     0.2052
  10232 OH2        -4.0490  -20.3370   -5.4110 O.3   3357  TIP3346    -0.4105
  10233 H1         -3.2450  -19.9500   -5.0650 H     3357  TIP3346     0.2052
  10234 H2         -4.6010  -19.5870   -5.6320 H     3357  TIP3346     0.2052
  10235 OH2        20.6550    2.8010  -17.0710 O.3   3358  TIP3347    -0.4105
  10236 H1         21.0900    3.6470  -16.9720 H     3358  TIP3347     0.2052
  10237 H2         21.0870    2.2320  -16.4340 H     3358  TIP3347     0.2052
  10238 OH2       -19.8940  -10.7520    3.9460 O.3   3359  TIP3348    -0.4105
  10239 H1        -19.8500   -9.9530    4.4700 H     3359  TIP3348     0.2052
  10240 H2        -19.9590  -10.4430    3.0420 H     3359  TIP3348     0.2052
  10241 OH2        -9.8260   31.2620   -0.0920 O.3   3360  TIP3349    -0.4105
  10242 H1         -8.9110   31.0770   -0.3030 H     3360  TIP3349     0.2052
  10243 H2         -9.8020   32.1050    0.3600 H     3360  TIP3349     0.2052
  10244 OH2        13.4600   19.7450   15.2010 O.3   3361  TIP3350    -0.4105
  10245 H1         13.3480   19.6080   16.1420 H     3361  TIP3350     0.2052
  10246 H2         12.8630   20.4630   14.9910 H     3361  TIP3350     0.2052
  10247 OH2       -15.7450   -7.7130  -11.9210 O.3   3362  TIP3351    -0.4105
  10248 H1        -16.3260   -8.3010  -12.4040 H     3362  TIP3351     0.2052
  10249 H2        -15.8730   -7.9500  -11.0020 H     3362  TIP3351     0.2052
  10250 OH2        28.7720   16.1650    7.4430 O.3   3363  TIP3352    -0.4105
  10251 H1         28.3900   16.1730    6.5660 H     3363  TIP3352     0.2052
  10252 H2         28.2310   16.7730    7.9460 H     3363  TIP3352     0.2052
  10253 OH2         5.9850    7.5880   -4.7100 O.3   3364  TIP3353    -0.4105
  10254 H1          5.7360    8.0140   -3.8900 H     3364  TIP3353     0.2052
  10255 H2          6.9380    7.5140   -4.6620 H     3364  TIP3353     0.2052
  10256 OH2       -33.9950  -14.2390   -0.9590 O.3   3365  TIP3354    -0.4105
  10257 H1        -34.2520  -15.1600   -0.9920 H     3365  TIP3354     0.2052
  10258 H2        -34.2510  -13.8880   -1.8120 H     3365  TIP3354     0.2052
  10259 OH2        10.0480   18.2240  -19.2780 O.3   3366  TIP3355    -0.4105
  10260 H1          9.1930   18.1350  -18.8570 H     3366  TIP3355     0.2052
  10261 H2          9.8600   18.1870  -20.2160 H     3366  TIP3355     0.2052
  10262 OH2         5.0920  -14.3250   -6.6860 O.3   3367  TIP3356    -0.4105
  10263 H1          5.9160  -14.1700   -7.1470 H     3367  TIP3356     0.2052
  10264 H2          4.8690  -15.2330   -6.8910 H     3367  TIP3356     0.2052
  10265 OH2       -12.3740   -2.9200  -14.3690 O.3   3368  TIP3357    -0.4105
  10266 H1        -12.0800   -2.4230  -15.1330 H     3368  TIP3357     0.2052
  10267 H2        -12.0800   -3.8150  -14.5370 H     3368  TIP3357     0.2052
  10268 OH2        -8.5810    8.2120  -14.2040 O.3   3369  TIP3358    -0.4105
  10269 H1         -7.7300    8.6150  -14.0280 H     3369  TIP3358     0.2052
  10270 H2         -8.4590    7.2880  -13.9860 H     3369  TIP3358     0.2052
  10271 OH2       -29.9060   11.6710   -0.3610 O.3   3370  TIP3359    -0.4105
  10272 H1        -30.2400   12.2960    0.2830 H     3370  TIP3359     0.2052
  10273 H2        -30.2750   10.8300   -0.0920 H     3370  TIP3359     0.2052
  10274 OH2        27.8000  -23.5530   -0.6850 O.3   3371  TIP3360    -0.4105
  10275 H1         27.4510  -23.0950    0.0790 H     3371  TIP3360     0.2052
  10276 H2         27.7560  -22.9090   -1.3920 H     3371  TIP3360     0.2052
  10277 OH2        25.5840   -0.7560    2.9690 O.3   3372  TIP3361    -0.4105
  10278 H1         26.0710   -1.3050    2.3540 H     3372  TIP3361     0.2052
  10279 H2         25.4370   -1.3180    3.7290 H     3372  TIP3361     0.2052
  10280 OH2        -1.4200   -3.3650   30.3250 O.3   3373  TIP3362    -0.4105
  10281 H1         -0.8580   -4.0430   29.9490 H     3373  TIP3362     0.2052
  10282 H2         -1.8470   -2.9610   29.5690 H     3373  TIP3362     0.2052
  10283 OH2         5.8650   26.0840   22.7010 O.3   3374  TIP3363    -0.4105
  10284 H1          5.7820   25.2620   23.1850 H     3374  TIP3363     0.2052
  10285 H2          5.8500   25.8230   21.7810 H     3374  TIP3363     0.2052
  10286 OH2       -10.1800    2.1900  -18.8880 O.3   3375  TIP3364    -0.4105
  10287 H1        -11.0780    1.8930  -18.7440 H     3375  TIP3364     0.2052
  10288 H2         -9.6350    1.4840  -18.5410 H     3375  TIP3364     0.2052
  10289 OH2       -12.5400   33.4290    2.6460 O.3   3376  TIP3365    -0.4105
  10290 H1        -12.7130   33.2430    1.7230 H     3376  TIP3365     0.2052
  10291 H2        -11.7280   33.9370    2.6390 H     3376  TIP3365     0.2052
  10292 OH2         4.7960  -22.3540    8.3950 O.3   3377  TIP3366    -0.4105
  10293 H1          4.9910  -22.0860    9.2930 H     3377  TIP3366     0.2052
  10294 H2          4.6650  -21.5320    7.9230 H     3377  TIP3366     0.2052
  10295 OH2       -17.6370  -14.4010    0.7430 O.3   3378  TIP3367    -0.4105
  10296 H1        -17.3800  -14.3750   -0.1790 H     3378  TIP3367     0.2052
  10297 H2        -16.8860  -14.0360    1.2110 H     3378  TIP3367     0.2052
  10298 OH2         0.2560   19.7170   22.1250 O.3   3379  TIP3368    -0.4105
  10299 H1         -0.1750   19.8370   21.2780 H     3379  TIP3368     0.2052
  10300 H2          0.3000   18.7680   22.2390 H     3379  TIP3368     0.2052
  10301 OH2        27.3350   10.7880   -1.8040 O.3   3380  TIP3369    -0.4105
  10302 H1         27.5200   10.8000   -0.8650 H     3380  TIP3369     0.2052
  10303 H2         26.4860   11.2220   -1.8870 H     3380  TIP3369     0.2052
  10304 OH2         7.1870  -21.7040  -13.8440 O.3   3381  TIP3370    -0.4105
  10305 H1          7.6420  -21.5880  -14.6780 H     3381  TIP3370     0.2052
  10306 H2          6.6660  -20.9080  -13.7420 H     3381  TIP3370     0.2052
  10307 OH2        11.1840   -6.5930   -5.2940 O.3   3382  TIP3371    -0.4105
  10308 H1         11.4340   -6.7700   -4.3870 H     3382  TIP3371     0.2052
  10309 H2         10.6080   -7.3200   -5.5300 H     3382  TIP3371     0.2052
  10310 OH2       -10.6950   19.7950  -21.5260 O.3   3383  TIP3372    -0.4105
  10311 H1        -10.6880   18.8420  -21.6190 H     3383  TIP3372     0.2052
  10312 H2        -11.6040   20.0080  -21.3170 H     3383  TIP3372     0.2052
  10313 OH2         2.2870    8.7360  -13.7000 O.3   3384  TIP3373    -0.4105
  10314 H1          2.8510    9.5100  -13.6910 H     3384  TIP3373     0.2052
  10315 H2          1.5670    8.9710  -14.2860 H     3384  TIP3373     0.2052
  10316 OH2        27.8320    3.5070    6.9100 O.3   3385  TIP3374    -0.4105
  10317 H1         28.4950    3.7180    7.5670 H     3385  TIP3374     0.2052
  10318 H2         28.3010    3.5430    6.0760 H     3385  TIP3374     0.2052
  10319 OH2        28.8460   -6.5090   -0.6650 O.3   3386  TIP3375    -0.4105
  10320 H1         28.0960   -6.2340   -0.1380 H     3386  TIP3375     0.2052
  10321 H2         29.0470   -7.3920   -0.3550 H     3386  TIP3375     0.2052
  10322 OH2         4.9760    8.6890  -12.0340 O.3   3387  TIP3376    -0.4105
  10323 H1          5.9230    8.7910  -12.1300 H     3387  TIP3376     0.2052
  10324 H2          4.7480    7.9830  -12.6380 H     3387  TIP3376     0.2052
  10325 OH2       -17.5410   12.2650   16.3690 O.3   3388  TIP3377    -0.4105
  10326 H1        -17.2140   12.3150   15.4710 H     3388  TIP3377     0.2052
  10327 H2        -16.8110   11.9030   16.8710 H     3388  TIP3377     0.2052
  10328 OH2       -31.8940   -8.8510    7.8020 O.3   3389  TIP3378    -0.4105
  10329 H1        -31.0330   -9.0710    7.4480 H     3389  TIP3378     0.2052
  10330 H2        -32.4440   -8.7150    7.0310 H     3389  TIP3378     0.2052
  10331 OH2        28.2030   -6.1790   -8.3640 O.3   3390  TIP3379    -0.4105
  10332 H1         27.3470   -6.4360   -8.7080 H     3390  TIP3379     0.2052
  10333 H2         28.1090   -5.2500   -8.1540 H     3390  TIP3379     0.2052
  10334 OH2        -3.0480   19.6610   23.0070 O.3   3391  TIP3380    -0.4105
  10335 H1         -3.5310   18.9190   22.6430 H     3391  TIP3380     0.2052
  10336 H2         -3.1410   20.3530   22.3520 H     3391  TIP3380     0.2052
  10337 OH2        14.0890   14.2590   27.7690 O.3   3392  TIP3381    -0.4105
  10338 H1         13.2430   14.6980   27.6720 H     3392  TIP3381     0.2052
  10339 H2         14.6750   14.9390   28.0990 H     3392  TIP3381     0.2052
  10340 OH2       -16.7040    4.8420  -11.9220 O.3   3393  TIP3382    -0.4105
  10341 H1        -17.1170    4.3380  -12.6230 H     3393  TIP3382     0.2052
  10342 H2        -16.7160    4.2560  -11.1660 H     3393  TIP3382     0.2052
  10343 OH2         9.7190  -29.6390    0.6510 O.3   3394  TIP3383    -0.4105
  10344 H1         10.0300  -29.3050    1.4930 H     3394  TIP3383     0.2052
  10345 H2          8.7660  -29.5650    0.7000 H     3394  TIP3383     0.2052
  10346 OH2         1.7050   12.3250   18.5300 O.3   3395  TIP3384    -0.4105
  10347 H1          0.8770   12.7890   18.6500 H     3395  TIP3384     0.2052
  10348 H2          2.1630   12.4310   19.3640 H     3395  TIP3384     0.2052
  10349 OH2        19.9360   13.8970    7.0140 O.3   3396  TIP3385    -0.4105
  10350 H1         19.4160   14.6920    6.8950 H     3396  TIP3385     0.2052
  10351 H2         20.2280   13.9360    7.9250 H     3396  TIP3385     0.2052
  10352 OH2         0.5140   -6.9980  -23.6780 O.3   3397  TIP3386    -0.4105
  10353 H1          0.4090   -6.2660  -24.2850 H     3397  TIP3386     0.2052
  10354 H2          0.1730   -7.7560  -24.1540 H     3397  TIP3386     0.2052
  10355 OH2        13.9270  -21.6740   -7.1950 O.3   3398  TIP3387    -0.4105
  10356 H1         14.4080  -21.2740   -6.4710 H     3398  TIP3387     0.2052
  10357 H2         13.2350  -22.1820   -6.7720 H     3398  TIP3387     0.2052
  10358 OH2       -24.2320   -5.1140   12.8920 O.3   3399  TIP3388    -0.4105
  10359 H1        -24.5280   -5.1710   11.9830 H     3399  TIP3388     0.2052
  10360 H2        -24.5690   -5.9100   13.3040 H     3399  TIP3388     0.2052
  10361 OH2        17.8790  -22.7700    0.2080 O.3   3400  TIP3389    -0.4105
  10362 H1         17.6650  -23.7010    0.2590 H     3400  TIP3389     0.2052
  10363 H2         17.0320  -22.3260    0.2550 H     3400  TIP3389     0.2052
  10364 OH2         8.6230  -24.2310    1.1630 O.3   3401  TIP3390    -0.4105
  10365 H1          7.6780  -24.2690    1.0170 H     3401  TIP3390     0.2052
  10366 H2          8.8250  -23.2960    1.1850 H     3401  TIP3390     0.2052
  10367 OH2         4.0440   -9.9670   16.7020 O.3   3402  TIP3391    -0.4105
  10368 H1          3.4640   -9.9110   15.9430 H     3402  TIP3391     0.2052
  10369 H2          4.1070  -10.9040   16.8880 H     3402  TIP3391     0.2052
  10370 OH2        21.9410    7.6910   -8.4220 O.3   3403  TIP3392    -0.4105
  10371 H1         22.4210    7.4040   -9.1990 H     3403  TIP3392     0.2052
  10372 H2         21.0820    7.9510   -8.7550 H     3403  TIP3392     0.2052
  10373 OH2         6.5140   13.4270   27.4410 O.3   3404  TIP3393    -0.4105
  10374 H1          5.8790   12.7530   27.1970 H     3404  TIP3393     0.2052
  10375 H2          7.3580   12.9750   27.4380 H     3404  TIP3393     0.2052
  10376 OH2        25.6880    1.9910    1.3010 O.3   3405  TIP3394    -0.4105
  10377 H1         24.7430    2.1330    1.2380 H     3405  TIP3394     0.2052
  10378 H2         25.8000    1.0520    1.1500 H     3405  TIP3394     0.2052
  10379 OH2         6.2120    6.9440   17.6600 O.3   3406  TIP3395    -0.4105
  10380 H1          7.0600    6.5020   17.6170 H     3406  TIP3395     0.2052
  10381 H2          6.1180    7.3660   16.8060 H     3406  TIP3395     0.2052
  10382 OH2       -21.1420   -7.0970   11.7060 O.3   3407  TIP3396    -0.4105
  10383 H1        -20.2980   -6.6710   11.5570 H     3407  TIP3396     0.2052
  10384 H2        -21.7760   -6.5390   11.2550 H     3407  TIP3396     0.2052
  10385 OH2        -8.1210   -6.9370   -3.6380 O.3   3408  TIP3397    -0.4105
  10386 H1         -8.0200   -6.0170   -3.8830 H     3408  TIP3397     0.2052
  10387 H2         -7.4270   -7.0920   -2.9980 H     3408  TIP3397     0.2052
  10388 OH2         3.9100   14.6800   -5.0400 O.3   3409  TIP3398    -0.4105
  10389 H1          4.5210   15.0330   -5.6870 H     3409  TIP3398     0.2052
  10390 H2          4.2320   13.7950   -4.8640 H     3409  TIP3398     0.2052
  10391 OH2       -14.1360   25.1310  -13.4720 O.3   3410  TIP3399    -0.4105
  10392 H1        -13.8430   24.4200  -14.0420 H     3410  TIP3399     0.2052
  10393 H2        -15.0910   25.0980  -13.5190 H     3410  TIP3399     0.2052
  10394 OH2         7.8760    7.1850   -8.9860 O.3   3411  TIP3400    -0.4105
  10395 H1          7.0210    6.9660   -9.3550 H     3411  TIP3400     0.2052
  10396 H2          8.5030    6.7150   -9.5370 H     3411  TIP3400     0.2052
  10397 OH2         8.7340    8.1080  -21.2220 O.3   3412  TIP3401    -0.4105
  10398 H1          7.8920    7.7510  -20.9410 H     3412  TIP3401     0.2052
  10399 H2          9.2040    7.3570  -21.5850 H     3412  TIP3401     0.2052
  10400 OH2        -8.5600  -12.9930   30.3670 O.3   3413  TIP3402    -0.4105
  10401 H1         -9.5060  -13.1100   30.2780 H     3413  TIP3402     0.2052
  10402 H2         -8.4590  -12.1050   30.7100 H     3413  TIP3402     0.2052
  10403 OH2        19.6300  -24.1820    9.8990 O.3   3414  TIP3403    -0.4105
  10404 H1         19.8400  -25.1160    9.9240 H     3414  TIP3403     0.2052
  10405 H2         18.6750  -24.1520    9.8540 H     3414  TIP3403     0.2052
  10406 OH2         4.3710   -8.0140    6.1590 O.3   3415  TIP3404    -0.4105
  10407 H1          5.1780   -8.5240    6.2220 H     3415  TIP3404     0.2052
  10408 H2          3.9370   -8.3480    5.3740 H     3415  TIP3404     0.2052
  10409 OH2        14.6790    1.6120    6.7150 O.3   3416  TIP3405    -0.4105
  10410 H1         13.9700    1.2420    7.2410 H     3416  TIP3405     0.2052
  10411 H2         15.3880    1.7630    7.3390 H     3416  TIP3405     0.2052
  10412 OH2        -1.1530  -21.0660  -20.7320 O.3   3417  TIP3406    -0.4105
  10413 H1         -1.5730  -20.9530  -19.8790 H     3417  TIP3406     0.2052
  10414 H2         -0.4960  -21.7470  -20.5870 H     3417  TIP3406     0.2052
  10415 OH2        -3.3850   18.9610   18.8010 O.3   3418  TIP3407    -0.4105
  10416 H1         -3.9940   19.4260   19.3740 H     3418  TIP3407     0.2052
  10417 H2         -3.7950   18.1090   18.6530 H     3418  TIP3407     0.2052
  10418 OH2        19.3070  -29.0560    5.4510 O.3   3419  TIP3408    -0.4105
  10419 H1         18.5150  -28.6720    5.0740 H     3419  TIP3408     0.2052
  10420 H2         19.0460  -29.3280    6.3310 H     3419  TIP3408     0.2052
  10421 OH2       -10.5940   14.9100   -6.0000 O.3   3420  TIP3409    -0.4105
  10422 H1         -9.7460   14.9030   -5.5570 H     3420  TIP3409     0.2052
  10423 H2        -10.7240   15.8240   -6.2540 H     3420  TIP3409     0.2052
  10424 OH2       -11.2770    3.1570  -12.8960 O.3   3421  TIP3410    -0.4105
  10425 H1        -12.0610    3.7010  -12.8210 H     3421  TIP3410     0.2052
  10426 H2        -11.1350    2.8170  -12.0130 H     3421  TIP3410     0.2052
  10427 OH2        -7.4320   -3.8830  -28.8780 O.3   3422  TIP3411    -0.4105
  10428 H1         -6.4950   -3.6920  -28.9180 H     3422  TIP3411     0.2052
  10429 H2         -7.7570   -3.6770  -29.7540 H     3422  TIP3411     0.2052
  10430 OH2       -20.4840   -3.7860  -10.1510 O.3   3423  TIP3412    -0.4105
  10431 H1        -19.6350   -4.0850  -10.4750 H     3423  TIP3412     0.2052
  10432 H2        -20.2730   -3.2360   -9.3970 H     3423  TIP3412     0.2052
  10433 OH2        12.2010  -14.7800   -4.3780 O.3   3424  TIP3413    -0.4105
  10434 H1         12.7430  -14.2390   -4.9510 H     3424  TIP3413     0.2052
  10435 H2         12.3500  -15.6760   -4.6810 H     3424  TIP3413     0.2052
  10436 OH2         2.2120   22.5120   -4.5000 O.3   3425  TIP3414    -0.4105
  10437 H1          2.1290   23.1020   -5.2490 H     3425  TIP3414     0.2052
  10438 H2          2.1100   21.6360   -4.8730 H     3425  TIP3414     0.2052
  10439 OH2        16.4630   12.3450   17.4740 O.3   3426  TIP3415    -0.4105
  10440 H1         15.7940   13.0010   17.2800 H     3426  TIP3415     0.2052
  10441 H2         17.1830   12.8440   17.8610 H     3426  TIP3415     0.2052
  10442 OH2        32.3940    6.0460   -9.3140 O.3   3427  TIP3416    -0.4105
  10443 H1         31.9710    6.7470   -8.8190 H     3427  TIP3416     0.2052
  10444 H2         31.7680    5.3220   -9.2880 H     3427  TIP3416     0.2052
  10445 OH2        -8.2110  -23.7470  -14.5410 O.3   3428  TIP3417    -0.4105
  10446 H1         -7.3170  -23.7330  -14.1980 H     3428  TIP3417     0.2052
  10447 H2         -8.5380  -24.6200  -14.3250 H     3428  TIP3417     0.2052
  10448 OH2       -21.0590  -19.3760  -20.6880 O.3   3429  TIP3418    -0.4105
  10449 H1        -20.1790  -19.7350  -20.5720 H     3429  TIP3418     0.2052
  10450 H2        -21.5350  -19.6490  -19.9030 H     3429  TIP3418     0.2052
  10451 OH2       -10.9300   26.5880   13.3680 O.3   3430  TIP3419    -0.4105
  10452 H1        -10.8180   26.1870   12.5060 H     3430  TIP3419     0.2052
  10453 H2        -11.7580   27.0650   13.3050 H     3430  TIP3419     0.2052
  10454 OH2       -16.8810    3.5130    0.6030 O.3   3431  TIP3420    -0.4105
  10455 H1        -16.3460    3.1140    1.2890 H     3431  TIP3420     0.2052
  10456 H2        -16.5100    4.3880    0.4880 H     3431  TIP3420     0.2052
  10457 OH2       -22.6740   -9.1810    5.8810 O.3   3432  TIP3421    -0.4105
  10458 H1        -21.9440   -8.8050    6.3720 H     3432  TIP3421     0.2052
  10459 H2        -23.1960   -9.6400    6.5400 H     3432  TIP3421     0.2052
  10460 OH2        35.2210    9.8220   -4.5120 O.3   3433  TIP3422    -0.4105
  10461 H1         34.7850    9.6240   -5.3410 H     3433  TIP3422     0.2052
  10462 H2         34.6310    9.4750   -3.8430 H     3433  TIP3422     0.2052
  10463 OH2        -3.2440    4.3680  -33.6350 O.3   3434  TIP3423    -0.4105
  10464 H1         -4.1830    4.3330  -33.8160 H     3434  TIP3423     0.2052
  10465 H2         -2.9100    5.0370  -34.2320 H     3434  TIP3423     0.2052
  10466 OH2         3.6970   13.3250  -11.8100 O.3   3435  TIP3424    -0.4105
  10467 H1          3.9210   13.8440  -12.5830 H     3435  TIP3424     0.2052
  10468 H2          4.5300   12.9490  -11.5240 H     3435  TIP3424     0.2052
  10469 OH2       -23.5190    4.6220    4.1450 O.3   3436  TIP3425    -0.4105
  10470 H1        -24.2110    4.0600    3.7970 H     3436  TIP3425     0.2052
  10471 H2        -23.9770    5.2470    4.7070 H     3436  TIP3425     0.2052
  10472 OH2        -9.1900   -4.9270   30.5570 O.3   3437  TIP3426    -0.4105
  10473 H1         -9.7600   -4.3260   31.0360 H     3437  TIP3426     0.2052
  10474 H2         -8.3110   -4.7400   30.8880 H     3437  TIP3426     0.2052
  10475 OH2       -16.1980   -9.6880   -6.8150 O.3   3438  TIP3427    -0.4105
  10476 H1        -16.0010   -8.7960   -6.5300 H     3438  TIP3427     0.2052
  10477 H2        -17.1550   -9.7300   -6.8270 H     3438  TIP3427     0.2052
  10478 OH2         4.7430   14.8130  -16.9380 O.3   3439  TIP3428    -0.4105
  10479 H1          4.5430   14.5550  -17.8380 H     3439  TIP3428     0.2052
  10480 H2          4.9320   15.7500  -16.9940 H     3439  TIP3428     0.2052
  10481 OH2        -7.4700    3.3520  -27.5350 O.3   3440  TIP3429    -0.4105
  10482 H1         -8.3450    2.9670  -27.5800 H     3440  TIP3429     0.2052
  10483 H2         -7.1610    3.1420  -26.6540 H     3440  TIP3429     0.2052
  10484 OH2       -20.4460   22.8160    1.2130 O.3   3441  TIP3430    -0.4105
  10485 H1        -20.0860   22.9250    0.3330 H     3441  TIP3430     0.2052
  10486 H2        -20.1180   21.9650    1.5030 H     3441  TIP3430     0.2052
  10487 OH2         9.8790   -9.0970   -5.6900 O.3   3442  TIP3431    -0.4105
  10488 H1          9.4510   -8.6960   -6.4470 H     3442  TIP3431     0.2052
  10489 H2         10.1430   -9.9650   -5.9950 H     3442  TIP3431     0.2052
  10490 OH2         4.9670   12.0810   13.0960 O.3   3443  TIP3432    -0.4105
  10491 H1          4.1540   12.4770   12.7790 H     3443  TIP3432     0.2052
  10492 H2          5.5910   12.8070   13.1270 H     3443  TIP3432     0.2052
  10493 OH2       -16.7290   -2.9910   -4.5980 O.3   3444  TIP3433    -0.4105
  10494 H1        -16.6020   -2.1550   -4.1490 H     3444  TIP3433     0.2052
  10495 H2        -17.4860   -2.8460   -5.1650 H     3444  TIP3433     0.2052
  10496 OH2         7.7990   -8.0120    1.9900 O.3   3445  TIP3434    -0.4105
  10497 H1          7.8680   -7.1220    2.3360 H     3445  TIP3434     0.2052
  10498 H2          8.6770   -8.3780    2.0920 H     3445  TIP3434     0.2052
  10499 OH2        -3.8040   28.1880    8.6540 O.3   3446  TIP3435    -0.4105
  10500 H1         -3.3810   27.6070    8.0210 H     3446  TIP3435     0.2052
  10501 H2         -3.2800   28.9900    8.6300 H     3446  TIP3435     0.2052
  10502 OH2       -12.1800  -12.6000   -4.0030 O.3   3447  TIP3436    -0.4105
  10503 H1        -12.4600  -13.0450   -4.8030 H     3447  TIP3436     0.2052
  10504 H2        -11.2630  -12.8540   -3.8960 H     3447  TIP3436     0.2052
  10505 OH2       -14.7680  -19.1090  -14.4910 O.3   3448  TIP3437    -0.4105
  10506 H1        -13.8530  -19.3720  -14.3900 H     3448  TIP3437     0.2052
  10507 H2        -14.9710  -18.6350  -13.6840 H     3448  TIP3437     0.2052
  10508 OH2       -28.5590    2.8850    5.1130 O.3   3449  TIP3438    -0.4105
  10509 H1        -28.3570    2.5360    5.9810 H     3449  TIP3438     0.2052
  10510 H2        -29.2380    3.5410    5.2700 H     3449  TIP3438     0.2052
  10511 OH2       -10.1040  -17.6740    0.0410 O.3   3450  TIP3439    -0.4105
  10512 H1        -10.7010  -17.0040   -0.2920 H     3450  TIP3439     0.2052
  10513 H2         -9.8080  -18.1400   -0.7410 H     3450  TIP3439     0.2052
  10514 OH2        -6.8670   15.9530   -1.0280 O.3   3451  TIP3440    -0.4105
  10515 H1         -7.4310   15.5750   -0.3530 H     3451  TIP3440     0.2052
  10516 H2         -6.4630   16.7110   -0.6060 H     3451  TIP3440     0.2052
  10517 OH2         1.9780  -19.2950  -19.1110 O.3   3452  TIP3441    -0.4105
  10518 H1          2.0710  -19.4930  -20.0430 H     3452  TIP3441     0.2052
  10519 H2          1.9230  -18.3410  -19.0720 H     3452  TIP3441     0.2052
  10520 OH2         2.0460   10.1830   -4.1260 O.3   3453  TIP3442    -0.4105
  10521 H1          2.4460   10.6710   -4.8450 H     3453  TIP3442     0.2052
  10522 H2          1.1120   10.3840   -4.1890 H     3453  TIP3442     0.2052
  10523 OH2        -5.1960   28.3590   -5.2590 O.3   3454  TIP3443    -0.4105
  10524 H1         -5.3660   27.4180   -5.2190 H     3454  TIP3443     0.2052
  10525 H2         -4.2660   28.4430   -5.0470 H     3454  TIP3443     0.2052
  10526 OH2        -5.9880  -17.1850    0.4200 O.3   3455  TIP3444    -0.4105
  10527 H1         -6.4320  -17.0130   -0.4110 H     3455  TIP3444     0.2052
  10528 H2         -6.6020  -16.8800    1.0870 H     3455  TIP3444     0.2052
  10529 OH2        16.6630  -11.7090   11.0450 O.3   3456  TIP3445    -0.4105
  10530 H1         16.6710  -11.7860   11.9990 H     3456  TIP3445     0.2052
  10531 H2         16.1820  -10.8990   10.8740 H     3456  TIP3445     0.2052
  10532 OH2       -18.4060    0.8930   -0.4040 O.3   3457  TIP3446    -0.4105
  10533 H1        -18.9580    1.6160   -0.7020 H     3457  TIP3446     0.2052
  10534 H2        -17.5660    1.0370   -0.8420 H     3457  TIP3446     0.2052
  10535 OH2         3.9960   14.5440   10.8770 O.3   3458  TIP3447    -0.4105
  10536 H1          3.8090   14.9210   11.7370 H     3458  TIP3447     0.2052
  10537 H2          3.9090   15.2780   10.2690 H     3458  TIP3447     0.2052
  10538 OH2       -14.7370   18.0680   15.9350 O.3   3459  TIP3448    -0.4105
  10539 H1        -14.1910   17.6790   15.2510 H     3459  TIP3448     0.2052
  10540 H2        -15.3930   17.3970   16.1280 H     3459  TIP3448     0.2052
  10541 OH2       -30.8160   11.4270    6.9710 O.3   3460  TIP3449    -0.4105
  10542 H1        -30.0660   11.2600    7.5420 H     3460  TIP3449     0.2052
  10543 H2        -31.3320   10.6220    7.0120 H     3460  TIP3449     0.2052
  10544 OH2         2.6700    0.3740   -3.9970 O.3   3461  TIP3450    -0.4105
  10545 H1          2.6310    0.8890   -4.8030 H     3461  TIP3450     0.2052
  10546 H2          1.7600    0.3130   -3.7080 H     3461  TIP3450     0.2052
  10547 OH2        16.2860   10.8780   10.7630 O.3   3462  TIP3451    -0.4105
  10548 H1         16.2750   11.3620    9.9370 H     3462  TIP3451     0.2052
  10549 H2         15.6920   10.1420   10.6180 H     3462  TIP3451     0.2052
  10550 OH2         4.2120  -18.8690  -17.1820 O.3   3463  TIP3452    -0.4105
  10551 H1          3.8010  -19.0910  -18.0180 H     3463  TIP3452     0.2052
  10552 H2          4.0910  -19.6490  -16.6410 H     3463  TIP3452     0.2052
  10553 OH2        -8.4820   -6.5590   27.3830 O.3   3464  TIP3453    -0.4105
  10554 H1         -9.0770   -6.0490   27.9330 H     3464  TIP3453     0.2052
  10555 H2         -8.9780   -7.3460   27.1570 H     3464  TIP3453     0.2052
  10556 OH2       -29.9760   15.0050    3.8660 O.3   3465  TIP3454    -0.4105
  10557 H1        -30.8050   15.1050    4.3320 H     3465  TIP3454     0.2052
  10558 H2        -29.6820   15.9010    3.7030 H     3465  TIP3454     0.2052
  10559 OH2       -26.6850    8.6510   11.7110 O.3   3466  TIP3455    -0.4105
  10560 H1        -26.5860    8.0550   10.9690 H     3466  TIP3455     0.2052
  10561 H2        -25.8080    8.7120   12.0890 H     3466  TIP3455     0.2052
  10562 OH2       -13.5270  -13.3700  -22.0050 O.3   3467  TIP3456    -0.4105
  10563 H1        -13.0110  -13.1180  -21.2390 H     3467  TIP3456     0.2052
  10564 H2        -14.4360  -13.3230  -21.7080 H     3467  TIP3456     0.2052
  10565 OH2        -8.5990   14.8650    5.6610 O.3   3468  TIP3457    -0.4105
  10566 H1         -8.9530   14.0780    6.0750 H     3468  TIP3457     0.2052
  10567 H2         -8.4820   15.4830    6.3820 H     3468  TIP3457     0.2052
  10568 OH2        30.4210   11.3370    2.6710 O.3   3469  TIP3458    -0.4105
  10569 H1         30.1460   12.1720    2.2920 H     3469  TIP3458     0.2052
  10570 H2         31.0760   11.5760    3.3270 H     3469  TIP3458     0.2052
  10571 OH2        10.2860  -27.1580   -2.2990 O.3   3470  TIP3459    -0.4105
  10572 H1         11.0080  -27.7850   -2.2510 H     3470  TIP3459     0.2052
  10573 H2         10.5340  -26.4600   -1.6910 H     3470  TIP3459     0.2052
  10574 OH2         9.9660    9.8380   28.3090 O.3   3471  TIP3460    -0.4105
  10575 H1         10.7170    9.4670   27.8460 H     3471  TIP3460     0.2052
  10576 H2         10.0900    9.5730   29.2200 H     3471  TIP3460     0.2052
  10577 OH2        17.9140   21.7570   18.0990 O.3   3472  TIP3461    -0.4105
  10578 H1         17.5290   20.9460   17.7670 H     3472  TIP3461     0.2052
  10579 H2         17.7370   21.7390   19.0400 H     3472  TIP3461     0.2052
  10580 OH2        15.9540   20.0050   17.5270 O.3   3473  TIP3462    -0.4105
  10581 H1         15.0020   19.9970   17.4340 H     3473  TIP3462     0.2052
  10582 H2         16.1180   19.5650   18.3610 H     3473  TIP3462     0.2052
  10583 OH2       -19.2030  -16.6030  -20.5800 O.3   3474  TIP3463    -0.4105
  10584 H1        -20.0790  -16.9730  -20.4690 H     3474  TIP3463     0.2052
  10585 H2        -18.6400  -17.1510  -20.0330 H     3474  TIP3463     0.2052
  10586 OH2        16.7630    1.1350    1.9890 O.3   3475  TIP3464    -0.4105
  10587 H1         17.5020    1.4980    1.5010 H     3475  TIP3464     0.2052
  10588 H2         15.9890    1.4720    1.5380 H     3475  TIP3464     0.2052
  10589 OH2        -5.7530    8.0020  -20.9300 O.3   3476  TIP3465    -0.4105
  10590 H1         -5.6080    7.0820  -21.1510 H     3476  TIP3465     0.2052
  10591 H2         -6.5370    8.2460  -21.4220 H     3476  TIP3465     0.2052
  10592 OH2       -14.9450   -1.0280   21.2740 O.3   3477  TIP3466    -0.4105
  10593 H1        -14.8340   -0.8070   22.1980 H     3477  TIP3466     0.2052
  10594 H2        -14.9590   -1.9850   21.2560 H     3477  TIP3466     0.2052
  10595 OH2        11.6900   15.2930  -13.6750 O.3   3478  TIP3467    -0.4105
  10596 H1         11.0630   16.0170  -13.6550 H     3478  TIP3467     0.2052
  10597 H2         11.1680   14.5310  -13.9240 H     3478  TIP3467     0.2052
  10598 OH2       -35.5590   -8.8100    6.9640 O.3   3479  TIP3468    -0.4105
  10599 H1        -34.8050   -8.7050    6.3840 H     3479  TIP3468     0.2052
  10600 H2        -35.2680   -9.4400    7.6240 H     3479  TIP3468     0.2052
  10601 OH2         8.7370  -18.3360    1.3480 O.3   3480  TIP3469    -0.4105
  10602 H1          7.9140  -17.9230    1.6100 H     3480  TIP3469     0.2052
  10603 H2          9.0270  -18.8100    2.1280 H     3480  TIP3469     0.2052
  10604 OH2       -14.8290  -16.7500   -6.7380 O.3   3481  TIP3470    -0.4105
  10605 H1        -14.1380  -17.2850   -7.1270 H     3481  TIP3470     0.2052
  10606 H2        -15.4910  -17.3810   -6.4540 H     3481  TIP3470     0.2052
  10607 OH2        -8.3280   -7.9290   23.5010 O.3   3482  TIP3471    -0.4105
  10608 H1         -7.3860   -7.8160   23.6280 H     3482  TIP3471     0.2052
  10609 H2         -8.4740   -7.7100   22.5800 H     3482  TIP3471     0.2052
  10610 OH2        -4.8700  -17.7290   21.7240 O.3   3483  TIP3472    -0.4105
  10611 H1         -4.3240  -17.3060   22.3870 H     3483  TIP3472     0.2052
  10612 H2         -4.2800  -17.8760   20.9850 H     3483  TIP3472     0.2052
  10613 OH2        13.7800    5.0970  -18.1400 O.3   3484  TIP3473    -0.4105
  10614 H1         13.2730    5.8320  -17.7940 H     3484  TIP3473     0.2052
  10615 H2         13.6340    5.1290  -19.0850 H     3484  TIP3473     0.2052
  10616 OH2        -6.0770    9.5880   19.5390 O.3   3485  TIP3474    -0.4105
  10617 H1         -6.1920    8.6500   19.6930 H     3485  TIP3474     0.2052
  10618 H2         -5.5460    9.8890   20.2750 H     3485  TIP3474     0.2052
  10619 OH2        -0.3740  -22.5980  -14.2660 O.3   3486  TIP3475    -0.4105
  10620 H1         -0.4490  -21.6450  -14.3240 H     3486  TIP3475     0.2052
  10621 H2         -0.3800  -22.8940  -15.1760 H     3486  TIP3475     0.2052
  10622 OH2         8.7220    0.4300   22.9490 O.3   3487  TIP3476    -0.4105
  10623 H1          9.0930    0.8870   23.7040 H     3487  TIP3476     0.2052
  10624 H2          9.0090    0.9430   22.1940 H     3487  TIP3476     0.2052
  10625 OH2        -7.3590  -11.1130   16.4570 O.3   3488  TIP3477    -0.4105
  10626 H1         -6.6380  -10.5690   16.7730 H     3488  TIP3477     0.2052
  10627 H2         -7.6020  -10.7250   15.6170 H     3488  TIP3477     0.2052
  10628 OH2        14.5440    4.7990   22.4440 O.3   3489  TIP3478    -0.4105
  10629 H1         15.3230    5.1490   22.8760 H     3489  TIP3478     0.2052
  10630 H2         14.8580    4.0280   21.9720 H     3489  TIP3478     0.2052
  10631 OH2        10.5150   13.2970  -26.8780 O.3   3490  TIP3479    -0.4105
  10632 H1         10.6090   12.7400  -26.1050 H     3490  TIP3479     0.2052
  10633 H2          9.7050   12.9990  -27.2920 H     3490  TIP3479     0.2052
  10634 OH2       -17.0130   23.4870   11.8340 O.3   3491  TIP3480    -0.4105
  10635 H1        -17.3480   22.5920   11.7820 H     3491  TIP3480     0.2052
  10636 H2        -17.3680   23.9210   11.0580 H     3491  TIP3480     0.2052
  10637 OH2       -34.6400   -4.3420    4.2210 O.3   3492  TIP3481    -0.4105
  10638 H1        -34.9340   -3.9920    3.3800 H     3492  TIP3481     0.2052
  10639 H2        -35.2400   -3.9600    4.8620 H     3492  TIP3481     0.2052
  10640 OH2       -21.9500   26.7880   -2.1960 O.3   3493  TIP3482    -0.4105
  10641 H1        -21.0960   27.2200   -2.2090 H     3493  TIP3482     0.2052
  10642 H2        -21.7450   25.8530   -2.1800 H     3493  TIP3482     0.2052
  10643 OH2       -11.6020   -1.7410  -16.5340 O.3   3494  TIP3483    -0.4105
  10644 H1        -11.6600   -0.7930  -16.6550 H     3494  TIP3483     0.2052
  10645 H2        -10.9580   -2.0270  -17.1820 H     3494  TIP3483     0.2052
  10646 OH2       -13.3590   -5.0450  -16.4530 O.3   3495  TIP3484    -0.4105
  10647 H1        -13.3960   -4.7320  -15.5490 H     3495  TIP3484     0.2052
  10648 H2        -13.9000   -5.8350  -16.4560 H     3495  TIP3484     0.2052
  10649 OH2       -17.2710  -10.4390   26.5760 O.3   3496  TIP3485    -0.4105
  10650 H1        -17.4760  -10.9030   27.3870 H     3496  TIP3485     0.2052
  10651 H2        -17.0640  -11.1310   25.9490 H     3496  TIP3485     0.2052
  10652 OH2       -10.7320  -15.6480   25.8200 O.3   3497  TIP3486    -0.4105
  10653 H1        -11.1970  -16.4670   25.9920 H     3497  TIP3486     0.2052
  10654 H2        -10.4860  -15.7020   24.8960 H     3497  TIP3486     0.2052
  10655 OH2        -0.9080   -5.6540  -11.4550 O.3   3498  TIP3487    -0.4105
  10656 H1         -1.0830   -6.3820  -10.8590 H     3498  TIP3487     0.2052
  10657 H2         -0.9600   -6.0410  -12.3290 H     3498  TIP3487     0.2052
  10658 OH2        -1.5480   26.9690   -5.4820 O.3   3499  TIP3488    -0.4105
  10659 H1         -2.2250   26.7750   -6.1310 H     3499  TIP3488     0.2052
  10660 H2         -1.7380   27.8620   -5.1960 H     3499  TIP3488     0.2052
  10661 OH2       -40.1660  -10.2410    6.9890 O.3   3500  TIP3489    -0.4105
  10662 H1        -39.5410   -9.6930    6.5140 H     3500  TIP3489     0.2052
  10663 H2        -39.7430  -10.4110    7.8310 H     3500  TIP3489     0.2052
  10664 OH2         3.8910  -21.2030   -8.0640 O.3   3501  TIP3490    -0.4105
  10665 H1          3.9410  -20.2470   -8.0940 H     3501  TIP3490     0.2052
  10666 H2          4.3190  -21.4910   -8.8700 H     3501  TIP3490     0.2052
  10667 OH2       -10.5780    7.9090   -0.7720 O.3   3502  TIP3491    -0.4105
  10668 H1        -11.3210    8.4640   -1.0090 H     3502  TIP3491     0.2052
  10669 H2         -9.8190    8.4900   -0.8270 H     3502  TIP3491     0.2052
  10670 OH2        11.2700  -10.4900  -16.6360 O.3   3503  TIP3492    -0.4105
  10671 H1         11.4710   -9.8650  -17.3320 H     3503  TIP3492     0.2052
  10672 H2         10.9710  -11.2740  -17.0960 H     3503  TIP3492     0.2052
  10673 OH2       -24.4890    1.7330    6.1180 O.3   3504  TIP3493    -0.4105
  10674 H1        -24.2280    1.0100    5.5480 H     3504  TIP3493     0.2052
  10675 H2        -24.9030    2.3650    5.5310 H     3504  TIP3493     0.2052
  10676 OH2        19.2690    4.2530  -13.9370 O.3   3505  TIP3494    -0.4105
  10677 H1         18.8070    3.8100  -14.6480 H     3505  TIP3494     0.2052
  10678 H2         20.1770    4.3050  -14.2370 H     3505  TIP3494     0.2052
  10679 OH2       -25.6090  -14.6960    0.5930 O.3   3506  TIP3495    -0.4105
  10680 H1        -24.7160  -14.8030    0.2670 H     3506  TIP3495     0.2052
  10681 H2        -25.8770  -15.5780    0.8530 H     3506  TIP3495     0.2052
  10682 OH2       -13.0610   -9.8080    7.4120 O.3   3507  TIP3496    -0.4105
  10683 H1        -12.8070   -9.2130    6.7070 H     3507  TIP3496     0.2052
  10684 H2        -12.4590  -10.5480    7.3310 H     3507  TIP3496     0.2052
  10685 OH2        18.2660    1.2400   14.7450 O.3   3508  TIP3497    -0.4105
  10686 H1         18.3750    1.1550   15.6920 H     3508  TIP3497     0.2052
  10687 H2         17.3720    1.5640   14.6340 H     3508  TIP3497     0.2052
  10688 OH2        -6.8350  -16.3860   -1.9420 O.3   3509  TIP3498    -0.4105
  10689 H1         -6.3780  -15.9050   -2.6320 H     3509  TIP3498     0.2052
  10690 H2         -7.5420  -15.8010   -1.6690 H     3509  TIP3498     0.2052
  10691 OH2        23.1600  -11.2750   -0.1770 O.3   3510  TIP3499    -0.4105
  10692 H1         23.5800  -11.5430   -0.9940 H     3510  TIP3499     0.2052
  10693 H2         22.9790  -12.0960    0.2800 H     3510  TIP3499     0.2052
  10694 OH2       -20.1840   15.8140  -11.4270 O.3   3511  TIP3500    -0.4105
  10695 H1        -21.0720   15.4900  -11.2780 H     3511  TIP3500     0.2052
  10696 H2        -20.2690   16.4160  -12.1660 H     3511  TIP3500     0.2052
  10697 OH2        -2.6470    8.3300   26.5850 O.3   3512  TIP3501    -0.4105
  10698 H1         -1.8800    8.5280   26.0470 H     3512  TIP3501     0.2052
  10699 H2         -3.3220    8.0730   25.9570 H     3512  TIP3501     0.2052
  10700 OH2       -18.7590   33.2470    3.9570 O.3   3513  TIP3502    -0.4105
  10701 H1        -19.6620   33.0020    4.1590 H     3513  TIP3502     0.2052
  10702 H2        -18.2540   32.9460    4.7120 H     3513  TIP3502     0.2052
  10703 OH2        18.0900  -32.5370   -4.0270 O.3   3514  TIP3503    -0.4105
  10704 H1         18.9380  -32.1550   -4.2510 H     3514  TIP3503     0.2052
  10705 H2         17.6100  -31.8240   -3.6040 H     3514  TIP3503     0.2052
  10706 OH2        -5.1020  -10.4470    2.8770 O.3   3515  TIP3504    -0.4105
  10707 H1         -6.0100  -10.1920    2.7150 H     3515  TIP3504     0.2052
  10708 H2         -4.6810  -10.3970    2.0190 H     3515  TIP3504     0.2052
  10709 OH2        11.4780   21.5440   27.9660 O.3   3516  TIP3505    -0.4105
  10710 H1         11.7370   21.5260   28.8880 H     3516  TIP3505     0.2052
  10711 H2         12.2920   21.3910   27.4850 H     3516  TIP3505     0.2052
  10712 OH2        21.9750   17.6900   18.5090 O.3   3517  TIP3506    -0.4105
  10713 H1         21.5030   18.1900   17.8430 H     3517  TIP3506     0.2052
  10714 H2         22.1700   18.3280   19.1950 H     3517  TIP3506     0.2052
  10715 OH2         3.3590   -2.5470    5.4910 O.3   3518  TIP3507    -0.4105
  10716 H1          2.5860   -1.9820    5.5070 H     3518  TIP3507     0.2052
  10717 H2          3.0050   -3.4370    5.4980 H     3518  TIP3507     0.2052
  10718 OH2       -10.3230  -19.2160    6.9110 O.3   3519  TIP3508    -0.4105
  10719 H1        -10.9380  -18.4830    6.9240 H     3519  TIP3508     0.2052
  10720 H2         -9.5450  -18.8850    7.3590 H     3519  TIP3508     0.2052
  10721 OH2        -9.1840   22.5650    6.1800 O.3   3520  TIP3509    -0.4105
  10722 H1         -9.7610   23.3260    6.1220 H     3520  TIP3509     0.2052
  10723 H2         -9.4620   22.1140    6.9770 H     3520  TIP3509     0.2052
  10724 OH2       -21.9420  -15.8820    9.7540 O.3   3521  TIP3510    -0.4105
  10725 H1        -21.4580  -15.0570    9.7160 H     3521  TIP3510     0.2052
  10726 H2        -22.5170  -15.8580    8.9890 H     3521  TIP3510     0.2052
  10727 OH2        13.6190  -19.6850  -11.5450 O.3   3522  TIP3511    -0.4105
  10728 H1         14.1150  -20.4840  -11.7240 H     3522  TIP3511     0.2052
  10729 H2         13.6840  -19.1760  -12.3530 H     3522  TIP3511     0.2052
  10730 OH2        -2.5560   22.1420   17.0860 O.3   3523  TIP3512    -0.4105
  10731 H1         -2.1510   21.7130   16.3310 H     3523  TIP3512     0.2052
  10732 H2         -2.7600   23.0250   16.7790 H     3523  TIP3512     0.2052
  10733 OH2        -0.4480  -11.3190  -13.0910 O.3   3524  TIP3513    -0.4105
  10734 H1         -0.6580  -11.8600  -13.8520 H     3524  TIP3513     0.2052
  10735 H2          0.3690  -11.6870  -12.7530 H     3524  TIP3513     0.2052
  10736 OH2         2.1190   10.1220   25.4530 O.3   3525  TIP3514    -0.4105
  10737 H1          2.8800    9.8960   25.9890 H     3525  TIP3514     0.2052
  10738 H2          2.4500   10.1200   24.5550 H     3525  TIP3514     0.2052
  10739 OH2       -15.3910  -14.3970   -7.9590 O.3   3526  TIP3515    -0.4105
  10740 H1        -14.9150  -13.6630   -7.5710 H     3526  TIP3515     0.2052
  10741 H2        -15.3480  -15.0870   -7.2960 H     3526  TIP3515     0.2052
  10742 OH2       -14.4530  -21.9170  -13.4490 O.3   3527  TIP3516    -0.4105
  10743 H1        -15.0990  -21.2120  -13.4940 H     3527  TIP3516     0.2052
  10744 H2        -14.2950  -22.1580  -14.3620 H     3527  TIP3516     0.2052
  10745 OH2        -2.9960    9.0410   21.3570 O.3   3528  TIP3517    -0.4105
  10746 H1         -3.3280    8.1440   21.3230 H     3528  TIP3517     0.2052
  10747 H2         -2.3530    9.0320   22.0660 H     3528  TIP3517     0.2052
  10748 OH2       -34.5030    7.2030    5.1710 O.3   3529  TIP3518    -0.4105
  10749 H1        -34.2810    6.3970    5.6370 H     3529  TIP3518     0.2052
  10750 H2        -35.4490    7.1490    5.0360 H     3529  TIP3518     0.2052
  10751 OH2        22.6630   18.4460    8.1330 O.3   3530  TIP3519    -0.4105
  10752 H1         22.1340   18.5830    7.3470 H     3530  TIP3519     0.2052
  10753 H2         23.1180   17.6190    7.9750 H     3530  TIP3519     0.2052
  10754 OH2       -34.7580   -5.8430    7.5070 O.3   3531  TIP3520    -0.4105
  10755 H1        -34.6930   -5.4040    6.6580 H     3531  TIP3520     0.2052
  10756 H2        -35.0530   -6.7290    7.2970 H     3531  TIP3520     0.2052
  10757 OH2       -10.1350    6.2860   -8.6740 O.3   3532  TIP3521    -0.4105
  10758 H1         -9.5740    6.1220   -9.4320 H     3532  TIP3521     0.2052
  10759 H2         -9.5580    6.1710   -7.9190 H     3532  TIP3521     0.2052
  10760 OH2         5.7960   -9.1820  -17.2880 O.3   3533  TIP3522    -0.4105
  10761 H1          5.3180   -9.6830  -16.6270 H     3533  TIP3522     0.2052
  10762 H2          5.1130   -8.7730  -17.8190 H     3533  TIP3522     0.2052
  10763 OH2         2.6090   18.6110  -17.3350 O.3   3534  TIP3523    -0.4105
  10764 H1          2.1530   19.4260  -17.1240 H     3534  TIP3523     0.2052
  10765 H2          3.0580   18.3700  -16.5240 H     3534  TIP3523     0.2052
  10766 OH2        -4.8540    0.0030  -20.8690 O.3   3535  TIP3524    -0.4105
  10767 H1         -5.4770    0.2510  -20.1860 H     3535  TIP3524     0.2052
  10768 H2         -5.1310   -0.8720  -21.1400 H     3535  TIP3524     0.2052
  10769 OH2         3.2320    2.5420   27.8800 O.3   3536  TIP3525    -0.4105
  10770 H1          2.9800    1.8410   28.4810 H     3536  TIP3525     0.2052
  10771 H2          2.4340    3.0560   27.7620 H     3536  TIP3525     0.2052
  10772 OH2       -12.7770  -11.0400   14.2690 O.3   3537  TIP3526    -0.4105
  10773 H1        -11.9140  -11.0820   13.8550 H     3537  TIP3526     0.2052
  10774 H2        -13.0620  -11.9520   14.3230 H     3537  TIP3526     0.2052
  10775 OH2        16.2980   13.9080   13.4300 O.3   3538  TIP3527    -0.4105
  10776 H1         15.3600   14.0940   13.4670 H     3538  TIP3527     0.2052
  10777 H2         16.7010   14.5990   13.9560 H     3538  TIP3527     0.2052
  10778 OH2       -14.2910   14.7360    8.8870 O.3   3539  TIP3528    -0.4105
  10779 H1        -14.4680   13.9520    8.3680 H     3539  TIP3528     0.2052
  10780 H2        -14.2200   15.4400    8.2410 H     3539  TIP3528     0.2052
  10781 OH2       -39.4980  -10.0390   13.0650 O.3   3540  TIP3529    -0.4105
  10782 H1        -40.2340   -9.4510   12.8960 H     3540  TIP3529     0.2052
  10783 H2        -38.8810   -9.5120   13.5720 H     3540  TIP3529     0.2052
  10784 OH2        -9.2050  -11.2140  -14.4130 O.3   3541  TIP3530    -0.4105
  10785 H1         -8.9750  -11.0900  -13.4920 H     3541  TIP3530     0.2052
  10786 H2         -9.8280  -10.5120  -14.6010 H     3541  TIP3530     0.2052
  10787 OH2        -3.4140   15.5710    1.9350 O.3   3542  TIP3531    -0.4105
  10788 H1         -3.5910   15.3070    2.8380 H     3542  TIP3531     0.2052
  10789 H2         -4.0850   16.2260    1.7420 H     3542  TIP3531     0.2052
  10790 OH2        14.9190   10.1390   -8.8960 O.3   3543  TIP3532    -0.4105
  10791 H1         14.3210   10.5740   -9.5040 H     3543  TIP3532     0.2052
  10792 H2         14.4090    9.4130   -8.5360 H     3543  TIP3532     0.2052
  10793 OH2        20.8590   -3.7470    4.6960 O.3   3544  TIP3533    -0.4105
  10794 H1         21.2680   -3.6000    5.5490 H     3544  TIP3533     0.2052
  10795 H2         20.0580   -3.2230    4.7200 H     3544  TIP3533     0.2052
  10796 OH2        -8.2870   -8.3720    5.4940 O.3   3545  TIP3534    -0.4105
  10797 H1         -7.7570   -7.5760    5.4520 H     3545  TIP3534     0.2052
  10798 H2         -7.8410   -8.9880    4.9140 H     3545  TIP3534     0.2052
  10799 OH2       -24.1940    4.9530   -6.3540 O.3   3546  TIP3535    -0.4105
  10800 H1        -23.2850    4.9030   -6.6480 H     3546  TIP3535     0.2052
  10801 H2        -24.5310    5.7550   -6.7540 H     3546  TIP3535     0.2052
  10802 OH2       -18.1040   12.9890   -4.4760 O.3   3547  TIP3536    -0.4105
  10803 H1        -18.4050   13.1440   -5.3710 H     3547  TIP3536     0.2052
  10804 H2        -17.8510   12.0660   -4.4640 H     3547  TIP3536     0.2052
  10805 OH2        -8.3750  -12.4120  -30.1380 O.3   3548  TIP3537    -0.4105
  10806 H1         -9.0480  -12.4260  -29.4580 H     3548  TIP3537     0.2052
  10807 H2         -7.5610  -12.6130  -29.6750 H     3548  TIP3537     0.2052
  10808 OH2        -5.0860  -20.3300  -24.1570 O.3   3549  TIP3538    -0.4105
  10809 H1         -4.4160  -20.0020  -24.7570 H     3549  TIP3538     0.2052
  10810 H2         -4.8890  -19.9060  -23.3220 H     3549  TIP3538     0.2052
  10811 OH2        -6.5430    7.2090  -17.4590 O.3   3550  TIP3539    -0.4105
  10812 H1         -5.8320    7.8250  -17.6310 H     3550  TIP3539     0.2052
  10813 H2         -7.3410    7.7280  -17.5610 H     3550  TIP3539     0.2052
  10814 OH2        -3.4550  -12.7650    2.7700 O.3   3551  TIP3540    -0.4105
  10815 H1         -3.1420  -12.4880    1.9090 H     3551  TIP3540     0.2052
  10816 H2         -3.9930  -12.0350    3.0770 H     3551  TIP3540     0.2052
  10817 OH2       -25.2460    7.4660   -4.1710 O.3   3552  TIP3541    -0.4105
  10818 H1        -24.9680    7.9350   -4.9580 H     3552  TIP3541     0.2052
  10819 H2        -24.4360    7.1060   -3.8080 H     3552  TIP3541     0.2052
  10820 OH2       -24.3160   -3.6490   17.9110 O.3   3553  TIP3542    -0.4105
  10821 H1        -24.1230   -2.7740   18.2480 H     3553  TIP3542     0.2052
  10822 H2        -24.4710   -4.1790   18.6930 H     3553  TIP3542     0.2052
  10823 OH2        -3.9310   16.5390    9.8010 O.3   3554  TIP3543    -0.4105
  10824 H1         -4.3670   17.2490    9.3280 H     3554  TIP3543     0.2052
  10825 H2         -3.0170   16.5910    9.5220 H     3554  TIP3543     0.2052
  10826 OH2       -20.6590   25.3020   -4.4220 O.3   3555  TIP3544    -0.4105
  10827 H1        -19.8980   24.8760   -4.0270 H     3555  TIP3544     0.2052
  10828 H2        -20.6430   25.0240   -5.3370 H     3555  TIP3544     0.2052
  10829 OH2        23.7810   17.2720   13.4410 O.3   3556  TIP3545    -0.4105
  10830 H1         24.6450   17.3570   13.0380 H     3556  TIP3545     0.2052
  10831 H2         23.9400   17.3970   14.3770 H     3556  TIP3545     0.2052
  10832 OH2       -10.4670  -23.1130  -19.9460 O.3   3557  TIP3546    -0.4105
  10833 H1         -9.9320  -23.0570  -19.1540 H     3557  TIP3546     0.2052
  10834 H2        -11.3690  -23.1150  -19.6270 H     3557  TIP3546     0.2052
  10835 OH2         2.6850   -2.5620  -28.0220 O.3   3558  TIP3547    -0.4105
  10836 H1          3.2980   -1.8810  -27.7420 H     3558  TIP3547     0.2052
  10837 H2          2.2530   -2.8410  -27.2150 H     3558  TIP3547     0.2052
  10838 OH2       -13.5010  -12.6260  -29.2790 O.3   3559  TIP3548    -0.4105
  10839 H1        -13.8230  -12.5760  -28.3790 H     3559  TIP3548     0.2052
  10840 H2        -13.5850  -13.5500  -29.5130 H     3559  TIP3548     0.2052
  10841 OH2        13.4500   -9.4050   -4.8350 O.3   3560  TIP3549    -0.4105
  10842 H1         13.8160   -8.5200   -4.8380 H     3560  TIP3549     0.2052
  10843 H2         12.5220   -9.2820   -5.0340 H     3560  TIP3549     0.2052
  10844 OH2        -2.4200   19.4610  -28.7350 O.3   3561  TIP3550    -0.4105
  10845 H1         -2.3920   18.9270  -27.9420 H     3561  TIP3550     0.2052
  10846 H2         -2.0900   18.8840  -29.4250 H     3561  TIP3550     0.2052
  10847 OH2        10.7190  -18.1720   -7.8220 O.3   3562  TIP3551    -0.4105
  10848 H1         10.8050  -17.6350   -7.0350 H     3562  TIP3551     0.2052
  10849 H2         11.5700  -18.6010   -7.9140 H     3562  TIP3551     0.2052
  10850 OH2        12.9850    7.6740   -9.3930 O.3   3563  TIP3552    -0.4105
  10851 H1         12.7920    8.3000  -10.0910 H     3563  TIP3552     0.2052
  10852 H2         12.4400    7.9570   -8.6590 H     3563  TIP3552     0.2052
  10853 OH2        -7.2360  -15.4220   29.7560 O.3   3564  TIP3553    -0.4105
  10854 H1         -7.9820  -15.8000   30.2220 H     3564  TIP3553     0.2052
  10855 H2         -7.2040  -14.5120   30.0520 H     3564  TIP3553     0.2052
  10856 OH2         4.8570   16.4050  -20.3610 O.3   3565  TIP3554    -0.4105
  10857 H1          4.9620   16.0520  -21.2440 H     3565  TIP3554     0.2052
  10858 H2          4.5540   15.6620  -19.8390 H     3565  TIP3554     0.2052
  10859 OH2       -20.5360   14.3180    7.7460 O.3   3566  TIP3555    -0.4105
  10860 H1        -19.7590   14.4600    8.2870 H     3566  TIP3555     0.2052
  10861 H2        -21.1730   13.9210    8.3410 H     3566  TIP3555     0.2052
  10862 OH2       -34.5490   -6.6600   11.4810 O.3   3567  TIP3556    -0.4105
  10863 H1        -34.6550   -6.6770   12.4320 H     3567  TIP3556     0.2052
  10864 H2        -33.6040   -6.7360   11.3440 H     3567  TIP3556     0.2052
  10865 OH2       -12.4100    6.7900   11.0290 O.3   3568  TIP3557    -0.4105
  10866 H1        -12.0480    5.9040   11.0190 H     3568  TIP3557     0.2052
  10867 H2        -12.8370    6.8850   10.1780 H     3568  TIP3557     0.2052
  10868 OH2        -9.0540   29.3610   -2.8200 O.3   3569  TIP3558    -0.4105
  10869 H1         -9.3700   30.2460   -2.6410 H     3569  TIP3558     0.2052
  10870 H2         -8.3880   29.2040   -2.1500 H     3569  TIP3558     0.2052
  10871 OH2        14.3980   -1.8040   10.1400 O.3   3570  TIP3559    -0.4105
  10872 H1         14.5660   -1.8350    9.1980 H     3570  TIP3559     0.2052
  10873 H2         14.9960   -1.1330   10.4680 H     3570  TIP3559     0.2052
  10874 OH2        15.2050   -9.0870   11.1170 O.3   3571  TIP3560    -0.4105
  10875 H1         14.7930   -9.3630   10.2990 H     3571  TIP3560     0.2052
  10876 H2         14.9780   -8.1610   11.2000 H     3571  TIP3560     0.2052
  10877 OH2        23.5660    9.7270   -9.2900 O.3   3572  TIP3561    -0.4105
  10878 H1         23.4140    9.7970  -10.2330 H     3572  TIP3561     0.2052
  10879 H2         23.0530    8.9660   -9.0200 H     3572  TIP3561     0.2052
  10880 OH2         0.2240  -27.8960    1.0750 O.3   3573  TIP3562    -0.4105
  10881 H1          0.9930  -27.3490    1.2410 H     3573  TIP3562     0.2052
  10882 H2          0.5510  -28.6110    0.5290 H     3573  TIP3562     0.2052
  10883 OH2         5.4000    6.6510  -10.3550 O.3   3574  TIP3563    -0.4105
  10884 H1          5.1010    5.9620  -10.9490 H     3574  TIP3563     0.2052
  10885 H2          5.3900    7.4470  -10.8870 H     3574  TIP3563     0.2052
  10886 OH2        -4.4050  -15.6170   11.8620 O.3   3575  TIP3564    -0.4105
  10887 H1         -4.7380  -16.3610   11.3610 H     3575  TIP3564     0.2052
  10888 H2         -5.1880  -15.1990   12.2210 H     3575  TIP3564     0.2052
  10889 OH2        -6.3860    0.5720  -25.3580 O.3   3576  TIP3565    -0.4105
  10890 H1         -6.3270   -0.2060  -24.8040 H     3576  TIP3565     0.2052
  10891 H2         -6.3630    1.3070  -24.7450 H     3576  TIP3565     0.2052
  10892 OH2        -4.2250   -1.7920  -25.4240 O.3   3577  TIP3566    -0.4105
  10893 H1         -4.3240   -1.7250  -26.3740 H     3577  TIP3566     0.2052
  10894 H2         -3.7160   -1.0190  -25.1810 H     3577  TIP3566     0.2052
  10895 OH2        21.2260    0.0310   -9.1620 O.3   3578  TIP3567    -0.4105
  10896 H1         21.3910   -0.9070   -9.0680 H     3578  TIP3567     0.2052
  10897 H2         21.2030    0.1770  -10.1080 H     3578  TIP3567     0.2052
  10898 OH2        11.6020   21.1120   13.8760 O.3   3579  TIP3568    -0.4105
  10899 H1         11.6180   22.0180   14.1840 H     3579  TIP3568     0.2052
  10900 H2         11.1590   21.1540   13.0290 H     3579  TIP3568     0.2052
  10901 OH2       -24.1840   -1.4800   10.9240 O.3   3580  TIP3569    -0.4105
  10902 H1        -24.6750   -1.0700   11.6370 H     3580  TIP3569     0.2052
  10903 H2        -24.0940   -0.7910   10.2670 H     3580  TIP3569     0.2052
  10904 OH2        -2.8000    8.4800  -16.9860 O.3   3581  TIP3570    -0.4105
  10905 H1         -2.1200    9.0100  -17.4020 H     3581  TIP3570     0.2052
  10906 H2         -3.5630    8.5770  -17.5560 H     3581  TIP3570     0.2052
  10907 OH2       -11.9440    8.9630   -3.7060 O.3   3582  TIP3571    -0.4105
  10908 H1        -12.5410    9.1290   -2.9770 H     3582  TIP3571     0.2052
  10909 H2        -12.5140    8.8770   -4.4700 H     3582  TIP3571     0.2052
  10910 OH2       -11.8310  -12.8200  -17.2090 O.3   3583  TIP3572    -0.4105
  10911 H1        -12.5900  -12.4130  -17.6260 H     3583  TIP3572     0.2052
  10912 H2        -11.1000  -12.2390  -17.4230 H     3583  TIP3572     0.2052
  10913 OH2        15.8790   -9.3740   13.8120 O.3   3584  TIP3573    -0.4105
  10914 H1         15.7880   -9.2030   12.8750 H     3584  TIP3573     0.2052
  10915 H2         14.9980   -9.6140   14.0990 H     3584  TIP3573     0.2052
  10916 OH2         9.9650  -29.1280   -5.9400 O.3   3585  TIP3574    -0.4105
  10917 H1          9.9240  -29.9550   -5.4600 H     3585  TIP3574     0.2052
  10918 H2          9.2580  -29.1890   -6.5840 H     3585  TIP3574     0.2052
  10919 OH2       -15.1040  -10.8030   16.2950 O.3   3586  TIP3575    -0.4105
  10920 H1        -14.1850  -10.6760   16.0590 H     3586  TIP3575     0.2052
  10921 H2        -15.5870  -10.6160   15.4900 H     3586  TIP3575     0.2052
  10922 OH2         2.6630  -20.6170   13.0800 O.3   3587  TIP3576    -0.4105
  10923 H1          2.7120  -21.3480   13.6960 H     3587  TIP3576     0.2052
  10924 H2          1.7320  -20.5380   12.8740 H     3587  TIP3576     0.2052
  10925 OH2        -3.6700   19.3170    6.3050 O.3   3588  TIP3577    -0.4105
  10926 H1         -3.3050   18.4520    6.1180 H     3588  TIP3577     0.2052
  10927 H2         -4.4900   19.1360    6.7650 H     3588  TIP3577     0.2052
  10928 OH2        19.9440   12.5260   -8.2520 O.3   3589  TIP3578    -0.4105
  10929 H1         20.8320   12.3250   -8.5490 H     3589  TIP3578     0.2052
  10930 H2         19.3770   12.1840   -8.9430 H     3589  TIP3578     0.2052
  10931 OH2       -13.8380   14.3100  -12.9060 O.3   3590  TIP3579    -0.4105
  10932 H1        -14.3990   13.7860  -12.3340 H     3590  TIP3579     0.2052
  10933 H2        -12.9950   13.8560  -12.8960 H     3590  TIP3579     0.2052
  10934 OH2        13.0850   15.5760    6.3370 O.3   3591  TIP3580    -0.4105
  10935 H1         12.2990   15.5030    5.7960 H     3591  TIP3580     0.2052
  10936 H2         13.1250   14.7470    6.8150 H     3591  TIP3580     0.2052
  10937 OH2        -3.6550  -12.4500   12.2390 O.3   3592  TIP3581    -0.4105
  10938 H1         -4.5400  -12.3340   11.8920 H     3592  TIP3581     0.2052
  10939 H2         -3.1030  -11.9070   11.6750 H     3592  TIP3581     0.2052
  10940 OH2       -14.3000    3.9920    5.4060 O.3   3593  TIP3582    -0.4105
  10941 H1        -13.5640    3.9280    6.0150 H     3593  TIP3582     0.2052
  10942 H2        -14.9060    4.6020    5.8250 H     3593  TIP3582     0.2052
  10943 OH2        -4.5490   20.7210  -11.3220 O.3   3594  TIP3583    -0.4105
  10944 H1         -4.8920   20.7560  -10.4290 H     3594  TIP3583     0.2052
  10945 H2         -4.9900   21.4390  -11.7770 H     3594  TIP3583     0.2052
  10946 OH2        26.2080   -5.2100    6.0610 O.3   3595  TIP3584    -0.4105
  10947 H1         25.4580   -5.7520    5.8170 H     3595  TIP3584     0.2052
  10948 H2         26.6810   -5.7310    6.7090 H     3595  TIP3584     0.2052
  10949 OH2        12.7500   10.8910    7.0370 O.3   3596  TIP3585    -0.4105
  10950 H1         13.0900   11.7840    7.0870 H     3596  TIP3585     0.2052
  10951 H2         13.3340   10.4450    6.4240 H     3596  TIP3585     0.2052
  10952 OH2       -33.1410  -13.9320    5.8040 O.3   3597  TIP3586    -0.4105
  10953 H1        -34.0900  -13.9070    5.9270 H     3597  TIP3586     0.2052
  10954 H2        -32.8130  -14.4200    6.5590 H     3597  TIP3586     0.2052
  10955 OH2       -27.1790  -10.0010   -1.9250 O.3   3598  TIP3587    -0.4105
  10956 H1        -27.4440  -10.6140   -2.6110 H     3598  TIP3587     0.2052
  10957 H2        -26.5310  -10.4830   -1.4110 H     3598  TIP3587     0.2052
  10958 OH2       -12.3270   18.6580    2.2530 O.3   3599  TIP3588    -0.4105
  10959 H1        -12.3030   19.1090    3.0970 H     3599  TIP3588     0.2052
  10960 H2        -12.3640   17.7280    2.4790 H     3599  TIP3588     0.2052
  10961 OH2        -3.8590    8.3180    0.0450 O.3   3600  TIP3589    -0.4105
  10962 H1         -4.4860    7.6730    0.3720 H     3600  TIP3589     0.2052
  10963 H2         -4.3130    9.1560    0.1250 H     3600  TIP3589     0.2052
  10964 OH2        28.7110    8.5500  -15.3220 O.3   3601  TIP3590    -0.4105
  10965 H1         29.6270    8.5720  -15.0460 H     3601  TIP3590     0.2052
  10966 H2         28.7100    8.0080  -16.1100 H     3601  TIP3590     0.2052
  10967 OH2        14.3980  -32.2540   -4.7740 O.3   3602  TIP3591    -0.4105
  10968 H1         14.6450  -32.9370   -5.3980 H     3602  TIP3591     0.2052
  10969 H2         13.4780  -32.0740   -4.9690 H     3602  TIP3591     0.2052
  10970 OH2         1.5170    6.7780   17.4430 O.3   3603  TIP3592    -0.4105
  10971 H1          1.9130    6.8540   18.3100 H     3603  TIP3592     0.2052
  10972 H2          1.3600    5.8400   17.3310 H     3603  TIP3592     0.2052
  10973 OH2       -32.0140   -2.3870    8.5450 O.3   3604  TIP3593    -0.4105
  10974 H1        -32.1300   -1.9370    9.3820 H     3604  TIP3593     0.2052
  10975 H2        -31.3530   -1.8700    8.0850 H     3604  TIP3593     0.2052
  10976 OH2         1.5660  -25.0150  -15.1830 O.3   3605  TIP3594    -0.4105
  10977 H1          0.9800  -24.5460  -15.7770 H     3605  TIP3594     0.2052
  10978 H2          1.0610  -25.7770  -14.8990 H     3605  TIP3594     0.2052
  10979 OH2        -1.4530  -22.0850   13.5850 O.3   3606  TIP3595    -0.4105
  10980 H1         -0.9440  -21.9200   12.7920 H     3606  TIP3595     0.2052
  10981 H2         -2.3650  -22.0190   13.3020 H     3606  TIP3595     0.2052
  10982 OH2       -29.0490  -12.9830    9.1630 O.3   3607  TIP3596    -0.4105
  10983 H1        -28.9220  -13.1210    8.2240 H     3607  TIP3596     0.2052
  10984 H2        -28.3200  -12.4210    9.4240 H     3607  TIP3596     0.2052
  10985 OH2        -4.8540   27.4560   -9.5360 O.3   3608  TIP3597    -0.4105
  10986 H1         -5.4320   26.9510  -10.1080 H     3608  TIP3597     0.2052
  10987 H2         -4.0770   27.6240  -10.0690 H     3608  TIP3597     0.2052
  10988 OH2        -0.7370   13.4650  -10.4360 O.3   3609  TIP3598    -0.4105
  10989 H1         -1.2790   12.9820   -9.8120 H     3609  TIP3598     0.2052
  10990 H2         -0.1100   12.8180  -10.7610 H     3609  TIP3598     0.2052
  10991 OH2        -4.8380    9.0340  -18.6580 O.3   3610  TIP3599    -0.4105
  10992 H1         -5.1410    8.6200  -19.4660 H     3610  TIP3599     0.2052
  10993 H2         -5.0510    9.9600  -18.7670 H     3610  TIP3599     0.2052
  10994 OH2         5.4870   16.1870  -23.2730 O.3   3611  TIP3600    -0.4105
  10995 H1          6.3350   16.1100  -23.7100 H     3611  TIP3600     0.2052
  10996 H2          5.2940   17.1250  -23.2880 H     3611  TIP3600     0.2052
  10997 OH2       -16.4800   33.6800   -2.1370 O.3   3612  TIP3601    -0.4105
  10998 H1        -16.0740   33.0020   -1.5970 H     3612  TIP3601     0.2052
  10999 H2        -17.3520   33.7970   -1.7600 H     3612  TIP3601     0.2052
  11000 OH2        -8.8450   12.6780    7.5090 O.3   3613  TIP3602    -0.4105
  11001 H1         -8.3960   12.7180    8.3540 H     3613  TIP3602     0.2052
  11002 H2         -9.3640   11.8740    7.5510 H     3613  TIP3602     0.2052
  11003 OH2        -8.7210    5.0190   11.0910 O.3   3614  TIP3603    -0.4105
  11004 H1         -8.7880    4.1670   11.5220 H     3614  TIP3603     0.2052
  11005 H2         -8.0910    5.5080   11.6200 H     3614  TIP3603     0.2052
  11006 OH2         7.6590  -22.3460  -11.1990 O.3   3615  TIP3604    -0.4105
  11007 H1          7.8170  -22.0040  -12.0790 H     3615  TIP3604     0.2052
  11008 H2          7.2120  -21.6350  -10.7410 H     3615  TIP3604     0.2052
  11009 OH2        -9.8000   18.4020   10.8920 O.3   3616  TIP3605    -0.4105
  11010 H1         -9.6930   19.1100   10.2560 H     3616  TIP3605     0.2052
  11011 H2         -9.2860   17.6780   10.5330 H     3616  TIP3605     0.2052
  11012 OH2       -26.6730    8.6900    0.6950 O.3   3617  TIP3606    -0.4105
  11013 H1        -27.4390    9.0230    1.1620 H     3617  TIP3606     0.2052
  11014 H2        -26.9810    8.5440   -0.2000 H     3617  TIP3606     0.2052
  11015 OH2        21.9680  -21.2140    6.9680 O.3   3618  TIP3607    -0.4105
  11016 H1         21.5970  -21.4930    7.8050 H     3618  TIP3607     0.2052
  11017 H2         22.1760  -22.0300    6.5130 H     3618  TIP3607     0.2052
  11018 OH2       -14.4500  -11.9410   11.5000 O.3   3619  TIP3608    -0.4105
  11019 H1        -14.0000  -12.0830   12.3340 H     3619  TIP3608     0.2052
  11020 H2        -14.7940  -11.0500   11.5630 H     3619  TIP3608     0.2052
  11021 OH2       -13.0400  -18.7910   13.6550 O.3   3620  TIP3609    -0.4105
  11022 H1        -13.3220  -19.2770   14.4300 H     3620  TIP3609     0.2052
  11023 H2        -12.7990  -19.4680   13.0220 H     3620  TIP3609     0.2052
  11024 OH2         7.3080  -13.6440   -8.3730 O.3   3621  TIP3610    -0.4105
  11025 H1          8.2250  -13.3710   -8.3860 H     3621  TIP3610     0.2052
  11026 H2          7.2610  -14.3590   -9.0080 H     3621  TIP3610     0.2052
  11027 OH2        -0.2810    9.4000  -18.1950 O.3   3622  TIP3611    -0.4105
  11028 H1          0.6270    9.2990  -18.4800 H     3622  TIP3611     0.2052
  11029 H2         -0.5240   10.2830  -18.4760 H     3622  TIP3611     0.2052
  11030 OH2       -13.5400  -16.0610   16.7260 O.3   3623  TIP3612    -0.4105
  11031 H1        -14.4740  -15.9880   16.5320 H     3623  TIP3612     0.2052
  11032 H2        -13.3020  -15.2060   17.0860 H     3623  TIP3612     0.2052
  11033 OH2       -16.4860   -9.4300    6.7940 O.3   3624  TIP3613    -0.4105
  11034 H1        -16.6630   -9.7820    7.6660 H     3624  TIP3613     0.2052
  11035 H2        -15.5550   -9.6010    6.6510 H     3624  TIP3613     0.2052
  11036 OH2       -22.7190    2.9700    7.6550 O.3   3625  TIP3614    -0.4105
  11037 H1        -23.4760    2.8320    7.0860 H     3625  TIP3614     0.2052
  11038 H2        -22.1030    2.2810    7.4050 H     3625  TIP3614     0.2052
  11039 OH2         9.4060  -20.6810   -2.8270 O.3   3626  TIP3615    -0.4105
  11040 H1          9.6800  -19.8230   -2.5050 H     3626  TIP3615     0.2052
  11041 H2          9.1920  -20.5340   -3.7490 H     3626  TIP3615     0.2052
  11042 OH2       -13.3290   -8.1440   13.1610 O.3   3627  TIP3616    -0.4105
  11043 H1        -13.3360   -8.9500   13.6780 H     3627  TIP3616     0.2052
  11044 H2        -12.8410   -7.5190   13.6970 H     3627  TIP3616     0.2052
  11045 OH2         7.7880   24.6040   12.1670 O.3   3628  TIP3617    -0.4105
  11046 H1          7.3770   25.3750   11.7750 H     3628  TIP3617     0.2052
  11047 H2          8.5060   24.3870   11.5730 H     3628  TIP3617     0.2052
  11048 OH2        -0.2790   12.0460  -14.6590 O.3   3629  TIP3618    -0.4105
  11049 H1         -1.0240   12.5890  -14.9160 H     3629  TIP3618     0.2052
  11050 H2         -0.5290   11.6800  -13.8100 H     3629  TIP3618     0.2052
  11051 OH2       -16.0770   11.7490    0.3240 O.3   3630  TIP3619    -0.4105
  11052 H1        -16.2270   12.6870    0.4390 H     3630  TIP3619     0.2052
  11053 H2        -15.3170   11.6960   -0.2550 H     3630  TIP3619     0.2052
  11054 OH2       -34.7040   -2.7230    1.1070 O.3   3631  TIP3620    -0.4105
  11055 H1        -34.0100   -3.3560    0.9250 H     3631  TIP3620     0.2052
  11056 H2        -34.4680   -1.9530    0.5910 H     3631  TIP3620     0.2052
  11057 OH2         1.3610   17.8470   25.5350 O.3   3632  TIP3621    -0.4105
  11058 H1          0.9980   17.8940   26.4190 H     3632  TIP3621     0.2052
  11059 H2          0.7050   18.2730   24.9830 H     3632  TIP3621     0.2052
  11060 OH2       -26.1360  -12.4030   14.9590 O.3   3633  TIP3622    -0.4105
  11061 H1        -26.7570  -11.8690   14.4640 H     3633  TIP3622     0.2052
  11062 H2        -25.2750  -12.0930   14.6770 H     3633  TIP3622     0.2052
  11063 OH2         0.7700   20.7440  -16.5850 O.3   3634  TIP3623    -0.4105
  11064 H1         -0.0410   20.3810  -16.9420 H     3634  TIP3623     0.2052
  11065 H2          0.4920   21.2410  -15.8160 H     3634  TIP3623     0.2052
  11066 OH2        -0.9210    7.6450   16.9640 O.3   3635  TIP3624    -0.4105
  11067 H1         -0.8260    7.7090   16.0130 H     3635  TIP3624     0.2052
  11068 H2         -0.0300    7.5090   17.2850 H     3635  TIP3624     0.2052
  11069 OH2        -6.7410   -4.4700   31.6130 O.3   3636  TIP3625    -0.4105
  11070 H1         -6.3770   -5.1220   31.0140 H     3636  TIP3625     0.2052
  11071 H2         -6.1490   -3.7200   31.5400 H     3636  TIP3625     0.2052
  11072 OH2        -7.6330   -1.7690    9.8770 O.3   3637  TIP3626    -0.4105
  11073 H1         -8.2390   -2.3630   10.3210 H     3637  TIP3626     0.2052
  11074 H2         -6.8830   -2.3180    9.6480 H     3637  TIP3626     0.2052
  11075 OH2       -12.9680   -9.0650  -11.3590 O.3   3638  TIP3627    -0.4105
  11076 H1        -13.8190   -9.3750  -11.0500 H     3638  TIP3627     0.2052
  11077 H2        -12.3850   -9.1740  -10.6080 H     3638  TIP3627     0.2052
  11078 OH2        15.4840   11.2270   13.4700 O.3   3639  TIP3628    -0.4105
  11079 H1         15.9140   11.9840   13.8690 H     3639  TIP3628     0.2052
  11080 H2         15.6700   11.3110   12.5350 H     3639  TIP3628     0.2052
  11081 OH2       -30.7580  -12.6440    2.7390 O.3   3640  TIP3629    -0.4105
  11082 H1        -31.3640  -13.3230    2.4420 H     3640  TIP3629     0.2052
  11083 H2        -29.9050  -13.0780    2.7660 H     3640  TIP3629     0.2052
  11084 OH2        -0.2350   20.7520   16.0090 O.3   3641  TIP3630    -0.4105
  11085 H1         -0.0990   20.9570   16.9340 H     3641  TIP3630     0.2052
  11086 H2          0.2430   21.4360   15.5390 H     3641  TIP3630     0.2052
  11087 OH2        -3.8420   -2.9890  -19.9860 O.3   3642  TIP3631    -0.4105
  11088 H1         -4.6980   -2.8260  -20.3830 H     3642  TIP3631     0.2052
  11089 H2         -3.7200   -3.9350  -20.0580 H     3642  TIP3631     0.2052
  11090 OH2        16.3350  -13.5350   -7.3750 O.3   3643  TIP3632    -0.4105
  11091 H1         16.8220  -13.2510   -8.1490 H     3643  TIP3632     0.2052
  11092 H2         16.0840  -12.7220   -6.9370 H     3643  TIP3632     0.2052
  11093 OH2        -8.8800  -23.6450  -22.0010 O.3   3644  TIP3633    -0.4105
  11094 H1         -9.0380  -24.5210  -22.3530 H     3644  TIP3633     0.2052
  11095 H2         -9.7290  -23.3670  -21.6580 H     3644  TIP3633     0.2052
  11096 OH2       -10.9260  -20.5000  -28.3020 O.3   3645  TIP3634    -0.4105
  11097 H1        -11.1140  -20.5440  -27.3640 H     3645  TIP3634     0.2052
  11098 H2        -10.0480  -20.8690  -28.3880 H     3645  TIP3634     0.2052
  11099 OH2        10.9150   -5.4770   12.2040 O.3   3646  TIP3635    -0.4105
  11100 H1         11.7180   -5.1960   11.7660 H     3646  TIP3635     0.2052
  11101 H2         10.2160   -5.2560   11.5890 H     3646  TIP3635     0.2052
  11102 OH2        -4.0020   -8.7720   27.0680 O.3   3647  TIP3636    -0.4105
  11103 H1         -4.5200   -8.0950   26.6320 H     3647  TIP3636     0.2052
  11104 H2         -4.5710   -9.0960   27.7660 H     3647  TIP3636     0.2052
  11105 OH2         3.7910    6.9340   19.0580 O.3   3648  TIP3637    -0.4105
  11106 H1          4.5770    6.7310   18.5500 H     3648  TIP3637     0.2052
  11107 H2          3.4290    7.7140   18.6380 H     3648  TIP3637     0.2052
  11108 OH2        -9.1630   15.1450    0.7270 O.3   3649  TIP3638    -0.4105
  11109 H1         -8.8250   15.3890    1.5890 H     3649  TIP3638     0.2052
  11110 H2         -9.6580   14.3400    0.8830 H     3649  TIP3638     0.2052
  11111 OH2       -22.8430   19.4170    8.3700 O.3   3650  TIP3639    -0.4105
  11112 H1        -23.5640   19.0660    7.8460 H     3650  TIP3639     0.2052
  11113 H2        -23.2720   19.8560    9.1050 H     3650  TIP3639     0.2052
  11114 OH2        -8.7800   19.3070   13.3500 O.3   3651  TIP3640    -0.4105
  11115 H1         -9.0430   18.7620   12.6080 H     3651  TIP3640     0.2052
  11116 H2         -8.3560   18.6990   13.9560 H     3651  TIP3640     0.2052
  11117 OH2       -21.1380  -22.4880  -11.7620 O.3   3652  TIP3641    -0.4105
  11118 H1        -21.2090  -22.5800  -10.8120 H     3652  TIP3641     0.2052
  11119 H2        -21.6110  -23.2430  -12.1120 H     3652  TIP3641     0.2052
  11120 OH2         1.7180   -7.2250   24.4730 O.3   3653  TIP3642    -0.4105
  11121 H1          1.7160   -6.4270   23.9450 H     3653  TIP3642     0.2052
  11122 H2          1.1490   -7.8290   23.9950 H     3653  TIP3642     0.2052
  11123 OH2       -12.5050   -1.2770   10.7280 O.3   3654  TIP3643    -0.4105
  11124 H1        -11.5690   -1.3500   10.9190 H     3654  TIP3643     0.2052
  11125 H2        -12.8100   -2.1820   10.6710 H     3654  TIP3643     0.2052
  11126 OH2         0.7980  -25.9130   10.5740 O.3   3655  TIP3644    -0.4105
  11127 H1          0.8050  -26.5260   11.3090 H     3655  TIP3644     0.2052
  11128 H2          1.4140  -26.2870    9.9440 H     3655  TIP3644     0.2052
  11129 OH2        12.9710  -32.2380    8.5730 O.3   3656  TIP3645    -0.4105
  11130 H1         12.7610  -31.7960    7.7510 H     3656  TIP3645     0.2052
  11131 H2         12.1380  -32.2850    9.0410 H     3656  TIP3645     0.2052
  11132 OH2        19.6120  -12.1190   13.8830 O.3   3657  TIP3646    -0.4105
  11133 H1         19.1940  -11.3110   13.5830 H     3657  TIP3646     0.2052
  11134 H2         18.9000  -12.7570   13.9220 H     3657  TIP3646     0.2052
  11135 OH2       -24.6840    7.0750   -7.8640 O.3   3658  TIP3647    -0.4105
  11136 H1        -24.1730    7.8230   -8.1730 H     3658  TIP3647     0.2052
  11137 H2        -25.2750    7.4430   -7.2070 H     3658  TIP3647     0.2052
  11138 OH2        11.8590   11.6000   -6.6810 O.3   3659  TIP3648    -0.4105
  11139 H1         12.1700   10.6950   -6.6660 H     3659  TIP3648     0.2052
  11140 H2         11.9670   11.8760   -7.5910 H     3659  TIP3648     0.2052
  11141 OH2        -1.8450    7.9870   12.6220 O.3   3660  TIP3649    -0.4105
  11142 H1         -2.0700    7.7290   13.5160 H     3660  TIP3649     0.2052
  11143 H2         -2.6790    8.2500   12.2320 H     3660  TIP3649     0.2052
  11144 OH2        17.3340    4.9570   -0.7480 O.3   3661  TIP3650    -0.4105
  11145 H1         17.2540    5.5510   -1.4950 H     3661  TIP3650     0.2052
  11146 H2         18.0250    4.3460   -1.0010 H     3661  TIP3650     0.2052
  11147 OH2         5.2700  -12.3780   11.5080 O.3   3662  TIP3651    -0.4105
  11148 H1          4.4810  -12.7550   11.1190 H     3662  TIP3651     0.2052
  11149 H2          5.5160  -12.9940   12.1980 H     3662  TIP3651     0.2052
  11150 OH2         5.1750   -2.6170   14.2880 O.3   3663  TIP3652    -0.4105
  11151 H1          5.9290   -2.8330   14.8370 H     3663  TIP3652     0.2052
  11152 H2          4.9410   -1.7240   14.5400 H     3663  TIP3652     0.2052
  11153 OH2       -27.1990   -7.9000   -8.7400 O.3   3664  TIP3653    -0.4105
  11154 H1        -27.9070   -7.6270   -8.1570 H     3664  TIP3653     0.2052
  11155 H2        -26.5590   -8.3170   -8.1630 H     3664  TIP3653     0.2052
  11156 OH2       -16.0970   -8.1720   17.1910 O.3   3665  TIP3654    -0.4105
  11157 H1        -15.6650   -8.1450   16.3370 H     3665  TIP3654     0.2052
  11158 H2        -16.5650   -7.3400   17.2490 H     3665  TIP3654     0.2052
  11159 OH2         3.6200   14.6860  -31.5630 O.3   3666  TIP3655    -0.4105
  11160 H1          4.0440   15.1180  -30.8210 H     3666  TIP3655     0.2052
  11161 H2          3.9160   15.1780  -32.3290 H     3666  TIP3655     0.2052
  11162 OH2         6.9120   16.4620    8.7790 O.3   3667  TIP3656    -0.4105
  11163 H1          7.1290   17.3910    8.7030 H     3667  TIP3656     0.2052
  11164 H2          6.2020   16.3280    8.1510 H     3667  TIP3656     0.2052
  11165 OH2        12.9900   19.3560   -8.9340 O.3   3668  TIP3657    -0.4105
  11166 H1         13.1080   20.2990   -8.8240 H     3668  TIP3657     0.2052
  11167 H2         12.1480   19.1680   -8.5200 H     3668  TIP3657     0.2052
  11168 OH2       -11.3700   11.6110    3.2670 O.3   3669  TIP3658    -0.4105
  11169 H1        -10.4790   11.8310    2.9950 H     3669  TIP3658     0.2052
  11170 H2        -11.3610   11.7110    4.2190 H     3669  TIP3658     0.2052
  11171 OH2        14.1520    1.9120  -22.3470 O.3   3670  TIP3659    -0.4105
  11172 H1         14.3840    1.8010  -21.4250 H     3670  TIP3659     0.2052
  11173 H2         13.9960    2.8510  -22.4440 H     3670  TIP3659     0.2052
  11174 OH2       -16.0610  -16.2570  -16.4300 O.3   3671  TIP3660    -0.4105
  11175 H1        -15.4020  -15.6410  -16.1100 H     3671  TIP3660     0.2052
  11176 H2        -15.6450  -17.1160  -16.3500 H     3671  TIP3660     0.2052
  11177 OH2       -17.7070   19.5330    3.5670 O.3   3672  TIP3661    -0.4105
  11178 H1        -18.1680   18.9530    4.1730 H     3672  TIP3661     0.2052
  11179 H2        -18.3920   19.8700    2.9890 H     3672  TIP3661     0.2052
  11180 OH2       -16.8120   13.5300   13.4720 O.3   3673  TIP3662    -0.4105
  11181 H1        -16.9890   14.3110   12.9480 H     3673  TIP3662     0.2052
  11182 H2        -16.7420   12.8220   12.8310 H     3673  TIP3662     0.2052
  11183 OH2       -12.7310   27.5650    3.4020 O.3   3674  TIP3663    -0.4105
  11184 H1        -12.2820   27.7930    2.5880 H     3674  TIP3663     0.2052
  11185 H2        -12.2510   28.0370    4.0820 H     3674  TIP3663     0.2052
  11186 OH2        15.9390   16.8030   12.0980 O.3   3675  TIP3664    -0.4105
  11187 H1         15.5900   17.2960   12.8400 H     3675  TIP3664     0.2052
  11188 H2         15.1870   16.6740   11.5200 H     3675  TIP3664     0.2052
  11189 OH2        -0.7760   -0.8730   27.8310 O.3   3676  TIP3665    -0.4105
  11190 H1         -1.4730   -1.5210   27.7310 H     3676  TIP3665     0.2052
  11191 H2          0.0320   -1.3860   27.8150 H     3676  TIP3665     0.2052
  11192 OH2         7.9870   19.4660   11.6910 O.3   3677  TIP3666    -0.4105
  11193 H1          7.6130   19.3510   10.8180 H     3677  TIP3666     0.2052
  11194 H2          8.2890   18.5920   11.9400 H     3677  TIP3666     0.2052
  11195 OH2        25.6830    5.5410   -4.9550 O.3   3678  TIP3667    -0.4105
  11196 H1         25.6150    6.4000   -5.3710 H     3678  TIP3667     0.2052
  11197 H2         25.7090    4.9230   -5.6860 H     3678  TIP3667     0.2052
  11198 OH2        -5.8590   15.1140   13.9950 O.3   3679  TIP3668    -0.4105
  11199 H1         -6.1920   15.0740   13.0980 H     3679  TIP3668     0.2052
  11200 H2         -6.5240   14.6670   14.5180 H     3679  TIP3668     0.2052
  11201 OH2       -19.5870   17.7930    7.8690 O.3   3680  TIP3669    -0.4105
  11202 H1        -20.5130   17.5590    7.8070 H     3680  TIP3669     0.2052
  11203 H2        -19.3180   17.4800    8.7330 H     3680  TIP3669     0.2052
  11204 OH2        -2.8200  -20.5630   18.9470 O.3   3681  TIP3670    -0.4105
  11205 H1         -2.2680  -21.3450   18.9280 H     3681  TIP3670     0.2052
  11206 H2         -3.3650  -20.6730   19.7270 H     3681  TIP3670     0.2052
  11207 OH2        14.2750  -26.4070    6.4770 O.3   3682  TIP3671    -0.4105
  11208 H1         14.7320  -25.6180    6.1860 H     3682  TIP3671     0.2052
  11209 H2         13.4730  -26.0830    6.8870 H     3682  TIP3671     0.2052
  11210 OH2        20.9520    4.1870   17.5690 O.3   3683  TIP3672    -0.4105
  11211 H1         20.9950    4.2450   18.5240 H     3683  TIP3672     0.2052
  11212 H2         20.0160    4.1440   17.3730 H     3683  TIP3672     0.2052
  11213 OH2       -14.0000  -13.4820   -1.6480 O.3   3684  TIP3673    -0.4105
  11214 H1        -14.8410  -13.0590   -1.4770 H     3684  TIP3673     0.2052
  11215 H2        -13.8250  -13.3060   -2.5720 H     3684  TIP3673     0.2052
  11216 OH2         5.9250    1.9250   10.7570 O.3   3685  TIP3674    -0.4105
  11217 H1          6.6000    2.5420   11.0370 H     3685  TIP3674     0.2052
  11218 H2          6.2380    1.0720   11.0590 H     3685  TIP3674     0.2052
  11219 OH2        22.2450  -13.5850    4.8000 O.3   3686  TIP3675    -0.4105
  11220 H1         21.7440  -14.1750    4.2380 H     3686  TIP3675     0.2052
  11221 H2         21.5830  -13.1200    5.3120 H     3686  TIP3675     0.2052
  11222 OH2        12.0610   -6.1890    8.9880 O.3   3687  TIP3676    -0.4105
  11223 H1         12.6230   -5.6800    9.5720 H     3687  TIP3676     0.2052
  11224 H2         11.6070   -5.5320    8.4600 H     3687  TIP3676     0.2052
  11225 OH2        -7.0240   26.2520    9.4560 O.3   3688  TIP3677    -0.4105
  11226 H1         -6.7530   26.4450    8.5580 H     3688  TIP3677     0.2052
  11227 H2         -6.2060   26.0720    9.9200 H     3688  TIP3677     0.2052
  11228 OH2         6.5090  -15.7570   26.0590 O.3   3689  TIP3678    -0.4105
  11229 H1          7.0150  -16.5480   25.8760 H     3689  TIP3678     0.2052
  11230 H2          5.5960  -16.0410   26.0140 H     3689  TIP3678     0.2052
  11231 OH2         6.8560    2.0010   29.5940 O.3   3690  TIP3679    -0.4105
  11232 H1          7.0660    1.5960   30.4360 H     3690  TIP3679     0.2052
  11233 H2          6.7890    2.9360   29.7870 H     3690  TIP3679     0.2052
  11234 OH2       -17.4240  -19.6640   -8.4700 O.3   3691  TIP3680    -0.4105
  11235 H1        -17.9730  -19.0010   -8.8870 H     3691  TIP3680     0.2052
  11236 H2        -17.4480  -20.4080   -9.0710 H     3691  TIP3680     0.2052
  11237 OH2       -18.2100   -4.9250  -12.4820 O.3   3692  TIP3681    -0.4105
  11238 H1        -17.6150   -4.8850  -11.7330 H     3692  TIP3681     0.2052
  11239 H2        -17.6330   -4.9550  -13.2450 H     3692  TIP3681     0.2052
  11240 OH2         7.1220   17.0420   25.2000 O.3   3693  TIP3682    -0.4105
  11241 H1          6.9520   16.4390   24.4770 H     3693  TIP3682     0.2052
  11242 H2          6.4360   16.8500   25.8390 H     3693  TIP3682     0.2052
  11243 OH2        -1.2850   25.4710   19.1260 O.3   3694  TIP3683    -0.4105
  11244 H1         -1.1100   24.5300   19.1530 H     3694  TIP3683     0.2052
  11245 H2         -2.0810   25.5510   18.6010 H     3694  TIP3683     0.2052
  11246 OH2        -6.7430  -13.7430    6.1510 O.3   3695  TIP3684    -0.4105
  11247 H1         -5.8000  -13.8980    6.0940 H     3695  TIP3684     0.2052
  11248 H2         -6.9450  -13.8340    7.0820 H     3695  TIP3684     0.2052
  11249 OH2       -12.9530    3.9310   -4.2920 O.3   3696  TIP3685    -0.4105
  11250 H1        -12.4790    4.6620   -3.8960 H     3696  TIP3685     0.2052
  11251 H2        -13.8000    4.3010   -4.5410 H     3696  TIP3685     0.2052
  11252 OH2       -18.3340    4.5090  -13.9110 O.3   3697  TIP3686    -0.4105
  11253 H1        -18.9540    5.0590  -13.4320 H     3697  TIP3686     0.2052
  11254 H2        -18.5360    4.6680  -14.8340 H     3697  TIP3686     0.2052
  11255 OH2        10.4210  -16.8270   24.1040 O.3   3698  TIP3687    -0.4105
  11256 H1          9.9380  -16.9740   24.9170 H     3698  TIP3687     0.2052
  11257 H2         10.5060  -15.8750   24.0430 H     3698  TIP3687     0.2052
  11258 OH2       -32.3520   -1.3490   11.2290 O.3   3699  TIP3688    -0.4105
  11259 H1        -32.2710   -2.1280   11.7790 H     3699  TIP3688     0.2052
  11260 H2        -32.5340   -0.6390   11.8450 H     3699  TIP3688     0.2052
  11261 OH2         1.8030   12.0460  -18.7120 O.3   3700  TIP3689    -0.4105
  11262 H1          1.7840   12.5930  -17.9260 H     3700  TIP3689     0.2052
  11263 H2          2.2560   11.2480  -18.4380 H     3700  TIP3689     0.2052
  11264 OH2         8.8190  -13.1510  -12.0160 O.3   3701  TIP3690    -0.4105
  11265 H1          9.3820  -12.9650  -11.2650 H     3701  TIP3690     0.2052
  11266 H2          9.2720  -13.8510  -12.4870 H     3701  TIP3690     0.2052
  11267 OH2       -17.9480   -1.0310    3.6530 O.3   3702  TIP3691    -0.4105
  11268 H1        -17.9230   -1.1420    2.7020 H     3702  TIP3691     0.2052
  11269 H2        -18.7460   -1.4840    3.9260 H     3702  TIP3691     0.2052
  11270 OH2         8.4710    8.3610   -1.1340 O.3   3703  TIP3692    -0.4105
  11271 H1          8.3340    9.3070   -1.0980 H     3703  TIP3692     0.2052
  11272 H2          7.6120    7.9860   -0.9410 H     3703  TIP3692     0.2052
  11273 OH2        12.4610    6.7030  -22.3890 O.3   3704  TIP3693    -0.4105
  11274 H1         12.0170    6.2880  -23.1290 H     3704  TIP3693     0.2052
  11275 H2         12.5090    7.6290  -22.6270 H     3704  TIP3693     0.2052
  11276 OH2        -7.5640   18.5760   -8.2430 O.3   3705  TIP3694    -0.4105
  11277 H1         -7.4090   18.0250   -9.0110 H     3705  TIP3694     0.2052
  11278 H2         -7.2570   18.0500   -7.5050 H     3705  TIP3694     0.2052
  11279 OH2        -7.6520   17.0940   14.7740 O.3   3706  TIP3695    -0.4105
  11280 H1         -8.3060   16.4310   14.5500 H     3706  TIP3695     0.2052
  11281 H2         -6.8600   16.8140   14.3140 H     3706  TIP3695     0.2052
  11282 OH2        -1.5930    2.3140   17.2380 O.3   3707  TIP3696    -0.4105
  11283 H1         -0.9100    2.3490   17.9070 H     3707  TIP3696     0.2052
  11284 H2         -1.4950    3.1330   16.7520 H     3707  TIP3696     0.2052
  11285 OH2       -32.3980  -12.3620   -3.7330 O.3   3708  TIP3697    -0.4105
  11286 H1        -31.6420  -12.0540   -4.2330 H     3708  TIP3697     0.2052
  11287 H2        -32.0360  -12.6250   -2.8870 H     3708  TIP3697     0.2052
  11288 OH2        15.7110  -21.6810   -9.3200 O.3   3709  TIP3698    -0.4105
  11289 H1         16.3060  -20.9320   -9.3330 H     3709  TIP3698     0.2052
  11290 H2         15.0650  -21.4630   -8.6490 H     3709  TIP3698     0.2052
  11291 OH2        18.0370  -28.8810   -5.2330 O.3   3710  TIP3699    -0.4105
  11292 H1         17.2040  -28.8680   -4.7630 H     3710  TIP3699     0.2052
  11293 H2         18.7020  -28.9010   -4.5450 H     3710  TIP3699     0.2052
  11294 OH2        -5.7870   -6.6370   23.1890 O.3   3711  TIP3700    -0.4105
  11295 H1         -6.1730   -5.8330   23.5370 H     3711  TIP3700     0.2052
  11296 H2         -4.8440   -6.4740   23.1980 H     3711  TIP3700     0.2052
  11297 OH2       -14.7540   25.9910    6.4590 O.3   3712  TIP3701    -0.4105
  11298 H1        -14.0390   25.6610    5.9160 H     3712  TIP3701     0.2052
  11299 H2        -14.3270   26.5650    7.0950 H     3712  TIP3701     0.2052
  11300 OH2       -16.7050   14.5020   -7.8210 O.3   3713  TIP3702    -0.4105
  11301 H1        -17.0100   13.7030   -8.2510 H     3713  TIP3702     0.2052
  11302 H2        -17.4600   14.8040   -7.3150 H     3713  TIP3702     0.2052
  11303 OH2        28.9120    2.4610   -2.4380 O.3   3714  TIP3703    -0.4105
  11304 H1         29.1070    3.1090   -3.1150 H     3714  TIP3703     0.2052
  11305 H2         28.7120    2.9810   -1.6600 H     3714  TIP3703     0.2052
  11306 OH2         4.5740   -2.2250   21.7420 O.3   3715  TIP3704    -0.4105
  11307 H1          4.8230   -1.4130   22.1830 H     3715  TIP3704     0.2052
  11308 H2          5.3770   -2.5220   21.3150 H     3715  TIP3704     0.2052
  11309 OH2        21.3040   10.2950   -6.1320 O.3   3716  TIP3705    -0.4105
  11310 H1         20.9280    9.4350   -5.9420 H     3716  TIP3705     0.2052
  11311 H2         20.5500   10.8830   -6.1700 H     3716  TIP3705     0.2052
  11312 OH2       -29.0590   17.7930    3.4900 O.3   3717  TIP3706    -0.4105
  11313 H1        -28.9630   18.4010    4.2230 H     3717  TIP3706     0.2052
  11314 H2        -28.4290   18.1020    2.8380 H     3717  TIP3706     0.2052
  11315 OH2       -13.7670  -19.6530   16.0910 O.3   3718  TIP3707    -0.4105
  11316 H1        -13.0530  -19.3640   16.6590 H     3718  TIP3707     0.2052
  11317 H2        -14.5640  -19.4170   16.5670 H     3718  TIP3707     0.2052
  11318 OH2       -10.9850   27.4290   -3.7720 O.3   3719  TIP3708    -0.4105
  11319 H1        -10.5080   26.6140   -3.9260 H     3719  TIP3708     0.2052
  11320 H2        -10.3190   28.0430   -3.4620 H     3719  TIP3708     0.2052
  11321 OH2        33.2770   11.1550  -13.9030 O.3   3720  TIP3709    -0.4105
  11322 H1         33.3560   10.3790  -14.4570 H     3720  TIP3709     0.2052
  11323 H2         33.5840   11.8750  -14.4520 H     3720  TIP3709     0.2052
  11324 OH2        20.7750   -1.8480   -2.7540 O.3   3721  TIP3710    -0.4105
  11325 H1         20.4220   -2.1040   -3.6060 H     3721  TIP3710     0.2052
  11326 H2         21.5650   -2.3780   -2.6520 H     3721  TIP3710     0.2052
  11327 OH2        12.1350    3.7350  -24.1410 O.3   3722  TIP3711    -0.4105
  11328 H1         11.9430    2.7990  -24.2030 H     3722  TIP3711     0.2052
  11329 H2         12.0430    4.0580  -25.0370 H     3722  TIP3711     0.2052
  11330 OH2       -18.5850   -4.5240    0.4970 O.3   3723  TIP3712    -0.4105
  11331 H1        -18.8570   -4.4800   -0.4200 H     3723  TIP3712     0.2052
  11332 H2        -17.6310   -4.5890    0.4610 H     3723  TIP3712     0.2052
  11333 OH2        36.4700    7.6220   -3.6740 O.3   3724  TIP3713    -0.4105
  11334 H1         36.4530    7.7040   -2.7210 H     3724  TIP3713     0.2052
  11335 H2         35.5930    7.8880   -3.9530 H     3724  TIP3713     0.2052
  11336 OH2       -30.0980    1.7670   13.3390 O.3   3725  TIP3714    -0.4105
  11337 H1        -30.9470    1.8840   13.7650 H     3725  TIP3714     0.2052
  11338 H2        -30.1560    0.9090   12.9180 H     3725  TIP3714     0.2052
  11339 OH2       -15.4430  -16.2080  -10.1470 O.3   3726  TIP3715    -0.4105
  11340 H1        -15.7860  -15.3200  -10.0430 H     3726  TIP3715     0.2052
  11341 H2        -14.8900  -16.3430   -9.3780 H     3726  TIP3715     0.2052
  11342 OH2        -8.5840    5.3610  -21.4690 O.3   3727  TIP3716    -0.4105
  11343 H1         -7.7350    5.0430  -21.1620 H     3727  TIP3716     0.2052
  11344 H2         -8.3710    5.9810  -22.1660 H     3727  TIP3716     0.2052
  11345 OH2       -25.8090  -10.2810   12.0060 O.3   3728  TIP3717    -0.4105
  11346 H1        -25.8450   -9.5140   11.4340 H     3728  TIP3717     0.2052
  11347 H2        -24.9960  -10.1730   12.5000 H     3728  TIP3717     0.2052
  11348 OH2         3.7840   -4.3770   28.2240 O.3   3729  TIP3718    -0.4105
  11349 H1          4.5740   -4.9130   28.2870 H     3729  TIP3718     0.2052
  11350 H2          3.1980   -4.8790   27.6580 H     3729  TIP3718     0.2052
  11351 OH2        -3.5460   10.7260  -24.9790 O.3   3730  TIP3719    -0.4105
  11352 H1         -3.2780    9.8790  -24.6230 H     3730  TIP3719     0.2052
  11353 H2         -3.7880   11.2430  -24.2110 H     3730  TIP3719     0.2052
  11354 OH2       -27.6910   -8.8560   15.7940 O.3   3731  TIP3720    -0.4105
  11355 H1        -28.4340   -8.3220   16.0760 H     3731  TIP3720     0.2052
  11356 H2        -27.3010   -9.1730   16.6090 H     3731  TIP3720     0.2052
  11357 OH2        19.1980   -4.4580  -11.6410 O.3   3732  TIP3721    -0.4105
  11358 H1         19.8240   -4.3470  -12.3570 H     3732  TIP3721     0.2052
  11359 H2         18.7990   -3.5940  -11.5360 H     3732  TIP3721     0.2052
  11360 OH2       -13.3430    8.8300   15.8050 O.3   3733  TIP3722    -0.4105
  11361 H1        -12.7310    8.3730   15.2290 H     3733  TIP3722     0.2052
  11362 H2        -13.1780    9.7590   15.6430 H     3733  TIP3722     0.2052
  11363 OH2        13.0110   13.6050    8.2750 O.3   3734  TIP3723    -0.4105
  11364 H1         12.0620   13.6490    8.1570 H     3734  TIP3723     0.2052
  11365 H2         13.1470   13.8060    9.2000 H     3734  TIP3723     0.2052
  11366 OH2        14.8120   -7.5660   20.5360 O.3   3735  TIP3724    -0.4105
  11367 H1         15.0520   -8.1260   19.7970 H     3735  TIP3724     0.2052
  11368 H2         13.9150   -7.2900   20.3450 H     3735  TIP3724     0.2052
  11369 OH2         9.7590   24.1100    5.7890 O.3   3736  TIP3725    -0.4105
  11370 H1          8.8670   23.7820    5.6740 H     3736  TIP3725     0.2052
  11371 H2         10.1960   23.4390    6.3140 H     3736  TIP3725     0.2052
  11372 OH2         8.6650   11.4880   24.4910 O.3   3737  TIP3726    -0.4105
  11373 H1          9.5730   11.5930   24.2080 H     3737  TIP3726     0.2052
  11374 H2          8.5210   12.2060   25.1080 H     3737  TIP3726     0.2052
  11375 OH2        12.9840   -1.7460  -21.6490 O.3   3738  TIP3727    -0.4105
  11376 H1         12.0940   -1.5240  -21.3760 H     3738  TIP3727     0.2052
  11377 H2         13.0800   -1.3380  -22.5100 H     3738  TIP3727     0.2052
  11378 OH2         2.1680    0.4890   26.2850 O.3   3739  TIP3728    -0.4105
  11379 H1          3.0170    0.8150   26.5820 H     3739  TIP3728     0.2052
  11380 H2          1.6700    1.2770   26.0680 H     3739  TIP3728     0.2052
  11381 OH2        -3.0970  -28.7830  -14.1040 O.3   3740  TIP3729    -0.4105
  11382 H1         -2.1880  -28.9750  -13.8750 H     3740  TIP3729     0.2052
  11383 H2         -3.6140  -29.2630  -13.4570 H     3740  TIP3729     0.2052
  11384 OH2        -2.6800   22.2400   -9.6000 O.3   3741  TIP3730    -0.4105
  11385 H1         -1.8130   22.0390   -9.9510 H     3741  TIP3730     0.2052
  11386 H2         -3.2890   21.8330  -10.2160 H     3741  TIP3730     0.2052
  11387 OH2        -6.6220   13.8100    3.7200 O.3   3742  TIP3731    -0.4105
  11388 H1         -7.1080   14.5610    4.0600 H     3742  TIP3731     0.2052
  11389 H2         -5.9940   13.5990    4.4120 H     3742  TIP3731     0.2052
  11390 OH2        22.8770    7.0700    8.7010 O.3   3743  TIP3732    -0.4105
  11391 H1         22.9190    7.4430    7.8210 H     3743  TIP3732     0.2052
  11392 H2         23.6740    7.3810    9.1320 H     3743  TIP3732     0.2052
  11393 OH2       -13.6600   22.6430   -0.2590 O.3   3744  TIP3733    -0.4105
  11394 H1        -14.5340   22.9240    0.0080 H     3744  TIP3733     0.2052
  11395 H2        -13.3540   23.3330   -0.8470 H     3744  TIP3733     0.2052
  11396 OH2        -1.2810   21.0990    0.3740 O.3   3745  TIP3734    -0.4105
  11397 H1         -0.4850   20.5680    0.4100 H     3745  TIP3734     0.2052
  11398 H2         -1.9910   20.4770    0.5320 H     3745  TIP3734     0.2052
  11399 OH2       -30.4680   -5.4210   -4.2500 O.3   3746  TIP3735    -0.4105
  11400 H1        -31.2070   -5.0190   -4.7060 H     3746  TIP3735     0.2052
  11401 H2        -30.8720   -5.9890   -3.5930 H     3746  TIP3735     0.2052
  11402 OH2        -0.8860    6.6960  -14.0210 O.3   3747  TIP3736    -0.4105
  11403 H1         -0.9230    6.8350  -13.0750 H     3747  TIP3736     0.2052
  11404 H2         -0.3320    7.4060  -14.3460 H     3747  TIP3736     0.2052
  11405 OH2        -9.7820   12.1550   -0.0180 O.3   3748  TIP3737    -0.4105
  11406 H1        -10.6590   11.7750    0.0270 H     3748  TIP3737     0.2052
  11407 H2         -9.5450   12.3190    0.8950 H     3748  TIP3737     0.2052
  11408 OH2        22.3630   15.1690   -6.7210 O.3   3749  TIP3738    -0.4105
  11409 H1         21.7760   14.4990   -6.3710 H     3749  TIP3738     0.2052
  11410 H2         23.1370   14.6830   -7.0080 H     3749  TIP3738     0.2052
  11411 OH2        17.4970  -29.6450    7.8840 O.3   3750  TIP3739    -0.4105
  11412 H1         16.6890  -29.1750    8.0890 H     3750  TIP3739     0.2052
  11413 H2         17.8910  -29.8290    8.7370 H     3750  TIP3739     0.2052
  11414 OH2       -18.6500    5.4380    1.0570 O.3   3751  TIP3740    -0.4105
  11415 H1        -18.5920    5.6170    1.9950 H     3751  TIP3740     0.2052
  11416 H2        -18.5130    4.4930    0.9840 H     3751  TIP3740     0.2052
  11417 OH2       -10.9610  -19.0650  -20.1810 O.3   3752  TIP3741    -0.4105
  11418 H1        -10.6430  -18.5900  -20.9490 H     3752  TIP3741     0.2052
  11419 H2        -11.7760  -18.6220  -19.9450 H     3752  TIP3741     0.2052
  11420 OH2        24.8750   13.4090   -7.6450 O.3   3753  TIP3742    -0.4105
  11421 H1         25.3710   12.7040   -8.0610 H     3753  TIP3742     0.2052
  11422 H2         25.5300   13.9080   -7.1570 H     3753  TIP3742     0.2052
  11423 OH2         2.8070    8.6530  -31.4660 O.3   3754  TIP3743    -0.4105
  11424 H1          3.5100    8.4760  -32.0910 H     3754  TIP3743     0.2052
  11425 H2          3.0360    9.5000  -31.0810 H     3754  TIP3743     0.2052
  11426 OH2        20.2480    7.8260  -15.5510 O.3   3755  TIP3744    -0.4105
  11427 H1         19.3980    7.4640  -15.3000 H     3755  TIP3744     0.2052
  11428 H2         20.5720    7.2300  -16.2260 H     3755  TIP3744     0.2052
  11429 OH2       -27.8990  -13.2960   -7.4000 O.3   3756  TIP3745    -0.4105
  11430 H1        -28.1780  -13.4620   -6.5000 H     3756  TIP3745     0.2052
  11431 H2        -28.6000  -13.6630   -7.9400 H     3756  TIP3745     0.2052
  11432 OH2         3.9240   24.9330   15.0650 O.3   3757  TIP3746    -0.4105
  11433 H1          4.6480   24.3100   14.9980 H     3757  TIP3746     0.2052
  11434 H2          4.2360   25.5990   15.6770 H     3757  TIP3746     0.2052
  11435 OH2        12.5530   -6.2380   19.0470 O.3   3758  TIP3747    -0.4105
  11436 H1         11.9250   -6.3070   18.3280 H     3758  TIP3747     0.2052
  11437 H2         12.3760   -5.3830   19.4390 H     3758  TIP3747     0.2052
  11438 OH2       -14.6060   15.7850   -8.7490 O.3   3759  TIP3748    -0.4105
  11439 H1        -13.8640   15.2160   -8.5410 H     3759  TIP3748     0.2052
  11440 H2        -15.3580   15.3590   -8.3380 H     3759  TIP3748     0.2052
  11441 OH2       -15.5360  -17.0640  -12.9140 O.3   3760  TIP3749    -0.4105
  11442 H1        -15.3000  -17.0950  -11.9860 H     3760  TIP3749     0.2052
  11443 H2        -16.4870  -17.1640  -12.9230 H     3760  TIP3749     0.2052
  11444 OH2        -0.8030   15.0410    7.2530 O.3   3761  TIP3750    -0.4105
  11445 H1         -1.4920   14.3770    7.2260 H     3761  TIP3750     0.2052
  11446 H2         -0.1140   14.6490    7.7890 H     3761  TIP3750     0.2052
  11447 OH2        11.5440   -1.2470    9.1040 O.3   3762  TIP3751    -0.4105
  11448 H1         10.7350   -1.7120    9.3160 H     3762  TIP3751     0.2052
  11449 H2         12.1750   -1.5540    9.7550 H     3762  TIP3751     0.2052
  11450 OH2        -4.6330    0.7070  -27.4640 O.3   3763  TIP3752    -0.4105
  11451 H1         -5.0980    0.3490  -28.2200 H     3763  TIP3752     0.2052
  11452 H2         -5.2270    0.5640  -26.7270 H     3763  TIP3752     0.2052
  11453 OH2        -6.1230   26.5580   -2.5490 O.3   3764  TIP3753    -0.4105
  11454 H1         -6.2870   26.3000   -3.4560 H     3764  TIP3753     0.2052
  11455 H2         -5.2370   26.9200   -2.5590 H     3764  TIP3753     0.2052
  11456 OH2       -14.1400   -4.9730  -19.9730 O.3   3765  TIP3754    -0.4105
  11457 H1        -13.7010   -4.1350  -19.8230 H     3765  TIP3754     0.2052
  11458 H2        -14.4210   -5.2550  -19.1020 H     3765  TIP3754     0.2052
  11459 OH2         2.2680   -9.9220   18.7750 O.3   3766  TIP3755    -0.4105
  11460 H1          2.4320   -9.0190   19.0470 H     3766  TIP3755     0.2052
  11461 H2          2.7580  -10.0200   17.9590 H     3766  TIP3755     0.2052
  11462 OH2       -16.7980   26.9690    4.8610 O.3   3767  TIP3756    -0.4105
  11463 H1        -16.0580   26.5500    5.3000 H     3767  TIP3756     0.2052
  11464 H2        -16.4360   27.7780    4.5000 H     3767  TIP3756     0.2052
  11465 OH2        20.1160   10.2060    6.5190 O.3   3768  TIP3757    -0.4105
  11466 H1         20.2130   10.8980    5.8650 H     3768  TIP3757     0.2052
  11467 H2         20.8480    9.6120    6.3510 H     3768  TIP3757     0.2052
  11468 OH2        16.6030    2.9770    8.2620 O.3   3769  TIP3758    -0.4105
  11469 H1         17.3770    2.4150    8.2160 H     3769  TIP3758     0.2052
  11470 H2         16.7850    3.6870    7.6480 H     3769  TIP3758     0.2052
  11471 OH2        -5.5920   17.1510   23.0390 O.3   3770  TIP3759    -0.4105
  11472 H1         -5.6880   17.5020   23.9250 H     3770  TIP3759     0.2052
  11473 H2         -6.0170   17.7980   22.4770 H     3770  TIP3759     0.2052
  11474 OH2       -14.3900  -14.3920   30.6300 O.3   3771  TIP3760    -0.4105
  11475 H1        -13.5990  -14.0800   30.1890 H     3771  TIP3760     0.2052
  11476 H2        -14.3420  -15.3450   30.5630 H     3771  TIP3760     0.2052
  11477 OH2        -1.4310  -16.2610  -17.0540 O.3   3772  TIP3761    -0.4105
  11478 H1         -1.8850  -15.4200  -17.1020 H     3772  TIP3761     0.2052
  11479 H2         -1.0470  -16.3770  -17.9230 H     3772  TIP3761     0.2052
  11480 OH2       -13.2260   29.3630   -8.2810 O.3   3773  TIP3762    -0.4105
  11481 H1        -12.7810   29.0350   -7.4990 H     3773  TIP3762     0.2052
  11482 H2        -13.9820   29.8420   -7.9430 H     3773  TIP3762     0.2052
  11483 OH2         7.5090  -24.3160  -13.5400 O.3   3774  TIP3763    -0.4105
  11484 H1          7.4310  -24.3700  -12.5870 H     3774  TIP3763     0.2052
  11485 H2          7.4100  -23.3840  -13.7360 H     3774  TIP3763     0.2052
  11486 OH2        -9.8350   20.3120  -10.8070 O.3   3775  TIP3764    -0.4105
  11487 H1        -10.5860   20.9060  -10.8270 H     3775  TIP3764     0.2052
  11488 H2         -9.2510   20.6850  -10.1470 H     3775  TIP3764     0.2052
  11489 OH2       -14.7380    3.4370  -22.2000 O.3   3776  TIP3765    -0.4105
  11490 H1        -13.9830    3.0960  -22.6800 H     3776  TIP3765     0.2052
  11491 H2        -14.3980    3.6360  -21.3270 H     3776  TIP3765     0.2052
  11492 OH2        11.9310   -3.3490  -17.1920 O.3   3777  TIP3766    -0.4105
  11493 H1         11.2790   -3.6940  -16.5810 H     3777  TIP3766     0.2052
  11494 H2         11.5940   -2.4880  -17.4410 H     3777  TIP3766     0.2052
  11495 OH2         8.3880   -5.4020  -12.4060 O.3   3778  TIP3767    -0.4105
  11496 H1          7.7640   -4.6780  -12.3730 H     3778  TIP3767     0.2052
  11497 H2          8.0440   -5.9850  -13.0830 H     3778  TIP3767     0.2052
  11498 OH2        -4.2280  -16.0730  -11.2420 O.3   3779  TIP3768    -0.4105
  11499 H1         -3.9690  -15.2380  -11.6300 H     3779  TIP3768     0.2052
  11500 H2         -4.9910  -15.8620  -10.7040 H     3779  TIP3768     0.2052
  11501 OH2        15.5830   -2.1750   -2.1530 O.3   3780  TIP3769    -0.4105
  11502 H1         16.1840   -2.2800   -1.4160 H     3780  TIP3769     0.2052
  11503 H2         15.3970   -1.2360   -2.1780 H     3780  TIP3769     0.2052
  11504 OH2         9.2410  -31.9170  -10.0680 O.3   3781  TIP3770    -0.4105
  11505 H1          8.8750  -31.3870  -10.7760 H     3781  TIP3770     0.2052
  11506 H2          8.5540  -31.9360   -9.4020 H     3781  TIP3770     0.2052
  11507 OH2         8.0560   19.4350   23.7790 O.3   3782  TIP3771    -0.4105
  11508 H1          8.3210   20.3400   23.9480 H     3782  TIP3771     0.2052
  11509 H2          7.9090   19.0620   24.6480 H     3782  TIP3771     0.2052
  11510 OH2       -12.3280   -6.1250   28.1500 O.3   3783  TIP3772    -0.4105
  11511 H1        -13.1400   -6.2900   27.6720 H     3783  TIP3772     0.2052
  11512 H2        -11.8020   -6.9120   28.0100 H     3783  TIP3772     0.2052
  11513 OH2         9.4360   15.5430  -30.4140 O.3   3784  TIP3773    -0.4105
  11514 H1          8.7890   14.8760  -30.1840 H     3784  TIP3773     0.2052
  11515 H2          9.3240   16.2240  -29.7510 H     3784  TIP3773     0.2052
  11516 OH2        23.5600    3.8990  -13.9800 O.3   3785  TIP3774    -0.4105
  11517 H1         23.1860    4.7060  -13.6280 H     3785  TIP3774     0.2052
  11518 H2         24.5000    4.0730  -14.0330 H     3785  TIP3774     0.2052
  11519 OH2        -3.4100   21.5050   -4.6660 O.3   3786  TIP3775    -0.4105
  11520 H1         -3.9680   21.9160   -4.0050 H     3786  TIP3775     0.2052
  11521 H2         -3.0200   22.2400   -5.1410 H     3786  TIP3775     0.2052
  11522 OH2         0.9830   13.0570  -21.1180 O.3   3787  TIP3776    -0.4105
  11523 H1          1.2020   13.9770  -21.2680 H     3787  TIP3776     0.2052
  11524 H2          1.3340   12.8650  -20.2480 H     3787  TIP3776     0.2052
  11525 OH2         2.3190   18.8880    9.8150 O.3   3788  TIP3777    -0.4105
  11526 H1          2.4080   19.3520    8.9830 H     3788  TIP3777     0.2052
  11527 H2          2.4420   17.9660    9.5890 H     3788  TIP3777     0.2052
  11528 OH2         0.0000   13.4070  -29.6500 O.3   3789  TIP3778    -0.4105
  11529 H1          0.1500   14.2910  -29.3150 H     3789  TIP3778     0.2052
  11530 H2          0.1630   13.4750  -30.5900 H     3789  TIP3778     0.2052
  11531 OH2       -11.8460   -1.4140   -1.3800 O.3   3790  TIP3779    -0.4105
  11532 H1        -11.6650   -1.2410   -0.4560 H     3790  TIP3779     0.2052
  11533 H2        -11.6570   -2.3460   -1.4910 H     3790  TIP3779     0.2052
  11534 OH2         3.0530   -2.5190   35.1270 O.3   3791  TIP3780    -0.4105
  11535 H1          2.9640   -1.6150   34.8260 H     3791  TIP3780     0.2052
  11536 H2          2.9190   -3.0480   34.3400 H     3791  TIP3780     0.2052
  11537 OH2        -5.7130    5.3130  -21.6400 O.3   3792  TIP3781    -0.4105
  11538 H1         -5.3870    4.4310  -21.4650 H     3792  TIP3781     0.2052
  11539 H2         -5.4130    5.5080  -22.5280 H     3792  TIP3781     0.2052
  11540 OH2         9.0700  -26.8380   18.9830 O.3   3793  TIP3782    -0.4105
  11541 H1          9.7150  -26.6930   19.6750 H     3793  TIP3782     0.2052
  11542 H2          9.4130  -26.3570   18.2300 H     3793  TIP3782     0.2052
  11543 OH2         3.9550   26.6280   12.7960 O.3   3794  TIP3783    -0.4105
  11544 H1          3.8360   26.1380   13.6100 H     3794  TIP3783     0.2052
  11545 H2          3.1790   26.4210   12.2760 H     3794  TIP3783     0.2052
  11546 OH2         9.8360   15.0490   14.4870 O.3   3795  TIP3784    -0.4105
  11547 H1          9.9980   15.6640   15.2020 H     3795  TIP3784     0.2052
  11548 H2         10.3470   14.2740   14.7160 H     3795  TIP3784     0.2052
  11549 OH2         7.8710    0.1760   -4.4870 O.3   3796  TIP3785    -0.4105
  11550 H1          7.1950    0.8390   -4.3460 H     3796  TIP3785     0.2052
  11551 H2          8.5990    0.6560   -4.8820 H     3796  TIP3785     0.2052
  11552 OH2        28.0350   12.7010   -4.1900 O.3   3797  TIP3786    -0.4105
  11553 H1         27.7510   11.7870   -4.1940 H     3797  TIP3786     0.2052
  11554 H2         28.2460   12.8840   -3.2750 H     3797  TIP3786     0.2052
  11555 OH2        17.6610  -17.5940   -6.6690 O.3   3798  TIP3787    -0.4105
  11556 H1         17.3080  -18.4520   -6.9050 H     3798  TIP3787     0.2052
  11557 H2         18.5440  -17.7790   -6.3470 H     3798  TIP3787     0.2052
  11558 OH2       -10.6260    6.9240    7.7120 O.3   3799  TIP3788    -0.4105
  11559 H1        -11.3750    7.2990    8.1750 H     3799  TIP3788     0.2052
  11560 H2        -10.4290    7.5560    7.0200 H     3799  TIP3788     0.2052
  11561 OH2       -12.5440   31.3440   -6.0480 O.3   3800  TIP3789    -0.4105
  11562 H1        -12.2120   30.4510   -5.9560 H     3800  TIP3789     0.2052
  11563 H2        -12.9930   31.5190   -5.2210 H     3800  TIP3789     0.2052
  11564 OH2        10.1280   -4.9090  -15.5700 O.3   3801  TIP3790    -0.4105
  11565 H1         10.1930   -5.5570  -14.8680 H     3801  TIP3790     0.2052
  11566 H2          9.9370   -5.4230  -16.3550 H     3801  TIP3790     0.2052
  11567 OH2       -25.5780   -8.2670    9.8830 O.3   3802  TIP3791    -0.4105
  11568 H1        -25.6950   -7.8580    9.0260 H     3802  TIP3791     0.2052
  11569 H2        -24.7890   -7.8580   10.2380 H     3802  TIP3791     0.2052
  11570 OH2        23.1300   -0.3100    5.2890 O.3   3803  TIP3792    -0.4105
  11571 H1         22.5520   -0.2930    4.5260 H     3803  TIP3792     0.2052
  11572 H2         22.6200   -0.7570    5.9650 H     3803  TIP3792     0.2052
  11573 OH2        22.9270   -3.9120  -10.9840 O.3   3804  TIP3793    -0.4105
  11574 H1         23.6550   -4.5310  -11.0200 H     3804  TIP3793     0.2052
  11575 H2         22.5350   -3.9510  -11.8570 H     3804  TIP3793     0.2052
  11576 OH2        18.4470   11.7270   -5.3680 O.3   3805  TIP3794    -0.4105
  11577 H1         18.1610   11.4980   -6.2530 H     3805  TIP3794     0.2052
  11578 H2         17.7600   12.3040   -5.0360 H     3805  TIP3794     0.2052
  11579 OH2       -11.8570   24.6540   -9.0840 O.3   3806  TIP3795    -0.4105
  11580 H1        -12.4720   25.1960   -9.5780 H     3806  TIP3795     0.2052
  11581 H2        -10.9950   24.9030   -9.4180 H     3806  TIP3795     0.2052
  11582 OH2        27.3870   10.9590  -15.6390 O.3   3807  TIP3796    -0.4105
  11583 H1         28.2400   11.3820  -15.7360 H     3807  TIP3796     0.2052
  11584 H2         27.5920   10.0440  -15.4460 H     3807  TIP3796     0.2052
  11585 OH2        -6.5590    6.7530   15.6610 O.3   3808  TIP3797    -0.4105
  11586 H1         -6.8420    7.4890   15.1180 H     3808  TIP3797     0.2052
  11587 H2         -7.2680    6.6330   16.2930 H     3808  TIP3797     0.2052
  11588 OH2       -19.1890   33.4590   -1.7430 O.3   3809  TIP3798    -0.4105
  11589 H1        -20.0810   33.5240   -2.0830 H     3809  TIP3798     0.2052
  11590 H2        -19.2740   33.6470   -0.8080 H     3809  TIP3798     0.2052
  11591 OH2       -15.6640   -4.4260   11.7520 O.3   3810  TIP3799    -0.4105
  11592 H1        -15.0360   -5.0840   11.4530 H     3810  TIP3799     0.2052
  11593 H2        -15.6830   -3.7760   11.0490 H     3810  TIP3799     0.2052
  11594 OH2        14.7730   17.5730   25.7660 O.3   3811  TIP3800    -0.4105
  11595 H1         13.9390   17.9430   26.0560 H     3811  TIP3800     0.2052
  11596 H2         14.9740   16.8980   26.4150 H     3811  TIP3800     0.2052
  11597 OH2       -10.2090  -24.3010   -8.5480 O.3   3812  TIP3801    -0.4105
  11598 H1        -10.9750  -24.7580   -8.8940 H     3812  TIP3801     0.2052
  11599 H2         -9.7140  -24.9780   -8.0860 H     3812  TIP3801     0.2052
  11600 OH2       -12.7180   28.1730   11.4470 O.3   3813  TIP3802    -0.4105
  11601 H1        -13.0120   28.9510   11.9210 H     3813  TIP3802     0.2052
  11602 H2        -13.0810   27.4390   11.9420 H     3813  TIP3802     0.2052
  11603 OH2        18.6280  -20.5540   11.2560 O.3   3814  TIP3803    -0.4105
  11604 H1         19.5030  -20.1860   11.1340 H     3814  TIP3803     0.2052
  11605 H2         18.0720  -20.0590   10.6540 H     3814  TIP3803     0.2052
  11606 OH2        -3.4490   -5.7040   11.2740 O.3   3815  TIP3804    -0.4105
  11607 H1         -3.0460   -5.8010   12.1370 H     3815  TIP3804     0.2052
  11608 H2         -2.7240   -5.4680   10.6960 H     3815  TIP3804     0.2052
  11609 OH2        14.1020   -4.4400   16.4480 O.3   3816  TIP3805    -0.4105
  11610 H1         13.6860   -3.8650   17.0900 H     3816  TIP3805     0.2052
  11611 H2         14.9940   -4.1010   16.3660 H     3816  TIP3805     0.2052
  11612 OH2        27.5010    8.7000    7.0310 O.3   3817  TIP3806    -0.4105
  11613 H1         27.1700    8.6110    6.1370 H     3817  TIP3806     0.2052
  11614 H2         27.9050    9.5680    7.0510 H     3817  TIP3806     0.2052
  11615 OH2        -7.4880  -21.4840  -22.6210 O.3   3818  TIP3807    -0.4105
  11616 H1         -6.8300  -22.0480  -23.0260 H     3818  TIP3807     0.2052
  11617 H2         -8.1950  -22.0800  -22.3710 H     3818  TIP3807     0.2052
  11618 OH2        15.8790  -17.9840   -2.9090 O.3   3819  TIP3808    -0.4105
  11619 H1         15.7220  -18.0080   -1.9650 H     3819  TIP3808     0.2052
  11620 H2         15.4120  -17.2040   -3.2100 H     3819  TIP3808     0.2052
  11621 OH2         1.6340  -20.9150   21.1060 O.3   3820  TIP3809    -0.4105
  11622 H1          1.6810  -19.9600   21.1390 H     3820  TIP3809     0.2052
  11623 H2          1.1560  -21.1050   20.2990 H     3820  TIP3809     0.2052
  11624 OH2        -1.9090   -3.8610   32.8890 O.3   3821  TIP3810    -0.4105
  11625 H1         -1.7810   -4.7980   33.0340 H     3821  TIP3810     0.2052
  11626 H2         -1.8090   -3.7480   31.9430 H     3821  TIP3810     0.2052
  11627 OH2         1.7080   29.4880   20.6760 O.3   3822  TIP3811    -0.4105
  11628 H1          1.9480   29.7390   19.7840 H     3822  TIP3811     0.2052
  11629 H2          0.8880   29.0050   20.5760 H     3822  TIP3811     0.2052
  11630 OH2        -2.8770   16.3250  -28.1510 O.3   3823  TIP3812    -0.4105
  11631 H1         -2.7140   15.7570  -27.3980 H     3823  TIP3812     0.2052
  11632 H2         -2.0100   16.4830  -28.5240 H     3823  TIP3812     0.2052
  11633 OH2       -30.7000    4.1290    5.7740 O.3   3824  TIP3813    -0.4105
  11634 H1        -31.1270    4.9760    5.9050 H     3824  TIP3813     0.2052
  11635 H2        -30.8330    3.6630    6.5990 H     3824  TIP3813     0.2052
  11636 OH2        -3.3670   -0.6670   25.7060 O.3   3825  TIP3814    -0.4105
  11637 H1         -4.0960   -0.1030   25.4490 H     3825  TIP3814     0.2052
  11638 H2         -2.7040   -0.5250   25.0300 H     3825  TIP3814     0.2052
  11639 OH2        -1.9230    5.6970  -16.7940 O.3   3826  TIP3815    -0.4105
  11640 H1         -1.6690    5.8850  -15.8900 H     3826  TIP3815     0.2052
  11641 H2         -2.0920    6.5570  -17.1790 H     3826  TIP3815     0.2052
  11642 OH2        -5.9530   11.9540  -21.3930 O.3   3827  TIP3816    -0.4105
  11643 H1         -5.0800   11.6910  -21.1010 H     3827  TIP3816     0.2052
  11644 H2         -6.4880   11.9350  -20.6000 H     3827  TIP3816     0.2052
  11645 OH2         9.3550   18.8930   18.0290 O.3   3828  TIP3817    -0.4105
  11646 H1         10.2160   18.5630   18.2860 H     3828  TIP3817     0.2052
  11647 H2          9.5000   19.3010   17.1750 H     3828  TIP3817     0.2052
  11648 OH2        -4.3630  -22.9500    1.4070 O.3   3829  TIP3818    -0.4105
  11649 H1         -3.8500  -22.8280    0.6080 H     3829  TIP3818     0.2052
  11650 H2         -5.0070  -22.2420    1.3890 H     3829  TIP3818     0.2052
  11651 OH2       -32.9490   -8.8210   -0.7010 O.3   3830  TIP3819    -0.4105
  11652 H1        -32.6810   -9.4910   -0.0720 H     3830  TIP3819     0.2052
  11653 H2        -33.3230   -9.3140   -1.4320 H     3830  TIP3819     0.2052
  11654 OH2        36.3130   10.5740   -7.9320 O.3   3831  TIP3820    -0.4105
  11655 H1         36.2480   11.0640   -8.7510 H     3831  TIP3820     0.2052
  11656 H2         35.8970    9.7330   -8.1220 H     3831  TIP3820     0.2052
  11657 OH2        -4.9530   28.7540    0.2600 O.3   3832  TIP3821    -0.4105
  11658 H1         -4.7800   29.4820   -0.3360 H     3832  TIP3821     0.2052
  11659 H2         -4.0850   28.4500    0.5260 H     3832  TIP3821     0.2052
  11660 OH2       -14.8710  -10.0330  -16.4660 O.3   3833  TIP3822    -0.4105
  11661 H1        -14.7090  -10.6330  -17.1940 H     3833  TIP3822     0.2052
  11662 H2        -14.9840  -10.6030  -15.7050 H     3833  TIP3822     0.2052
  11663 OH2        21.0910    9.6160    9.0720 O.3   3834  TIP3823    -0.4105
  11664 H1         21.3540    8.7100    8.9060 H     3834  TIP3823     0.2052
  11665 H2         20.6370    9.8840    8.2730 H     3834  TIP3823     0.2052
  11666 OH2       -16.1680   20.5890    1.0110 O.3   3835  TIP3824    -0.4105
  11667 H1        -16.4420   20.1740    1.8280 H     3835  TIP3824     0.2052
  11668 H2        -16.7680   21.3270    0.9030 H     3835  TIP3824     0.2052
  11669 OH2       -15.5140    1.4340  -13.2730 O.3   3836  TIP3825    -0.4105
  11670 H1        -14.5970    1.4830  -13.5440 H     3836  TIP3825     0.2052
  11671 H2        -15.4810    1.4120  -12.3170 H     3836  TIP3825     0.2052
  11672 OH2       -19.6080  -17.6530   -5.5880 O.3   3837  TIP3826    -0.4105
  11673 H1        -18.8550  -17.0920   -5.4040 H     3837  TIP3826     0.2052
  11674 H2        -19.2930  -18.2690   -6.2500 H     3837  TIP3826     0.2052
  11675 OH2        12.7060   15.9620   21.2480 O.3   3838  TIP3827    -0.4105
  11676 H1         12.2060   15.1570   21.1140 H     3838  TIP3827     0.2052
  11677 H2         12.0460   16.6550   21.2620 H     3838  TIP3827     0.2052
  11678 OH2       -24.3110   -0.9650    0.1770 O.3   3839  TIP3828    -0.4105
  11679 H1        -25.0270   -1.5980    0.1160 H     3839  TIP3828     0.2052
  11680 H2        -23.8900   -0.9960   -0.6820 H     3839  TIP3828     0.2052
  11681 OH2        19.6240  -29.5300    2.0650 O.3   3840  TIP3829    -0.4105
  11682 H1         18.8070  -30.0150    1.9460 H     3840  TIP3829     0.2052
  11683 H2         19.7450  -29.0570    1.2420 H     3840  TIP3829     0.2052
  11684 OH2       -35.1950   -7.2090   14.4120 O.3   3841  TIP3830    -0.4105
  11685 H1        -34.2450   -7.1860   14.5300 H     3841  TIP3830     0.2052
  11686 H2        -35.5230   -6.5090   14.9760 H     3841  TIP3830     0.2052
  11687 OH2        -1.8880   15.3860  -14.5350 O.3   3842  TIP3831    -0.4105
  11688 H1         -2.0330   14.4850  -14.8240 H     3842  TIP3831     0.2052
  11689 H2         -1.2300   15.3140  -13.8450 H     3842  TIP3831     0.2052
  11690 OH2         7.3610   11.4130   18.9080 O.3   3843  TIP3832    -0.4105
  11691 H1          6.8080   12.1940   18.8680 H     3843  TIP3832     0.2052
  11692 H2          6.7540   10.6980   19.0990 H     3843  TIP3832     0.2052
  11693 OH2        19.2670   14.7580   -1.0380 O.3   3844  TIP3833    -0.4105
  11694 H1         19.7420   15.5810   -0.9270 H     3844  TIP3833     0.2052
  11695 H2         18.9660   14.7750   -1.9470 H     3844  TIP3833     0.2052
  11696 OH2         3.8550   14.8100  -14.1170 O.3   3845  TIP3834    -0.4105
  11697 H1          3.0990   15.1100  -14.6230 H     3845  TIP3834     0.2052
  11698 H2          4.5700   14.7750  -14.7510 H     3845  TIP3834     0.2052
  11699 OH2        -1.2640    5.1880   -9.9480 O.3   3846  TIP3835    -0.4105
  11700 H1         -0.6750    4.5220   -9.5940 H     3846  TIP3835     0.2052
  11701 H2         -0.6810    5.8760  -10.2690 H     3846  TIP3835     0.2052
  11702 OH2        14.3810   20.9580   23.4340 O.3   3847  TIP3836    -0.4105
  11703 H1         15.2520   20.6200   23.2290 H     3847  TIP3836     0.2052
  11704 H2         13.8140   20.5910   22.7560 H     3847  TIP3836     0.2052
  11705 OH2         5.3110  -24.4910   -9.8200 O.3   3848  TIP3837    -0.4105
  11706 H1          5.7530  -25.2970  -10.0890 H     3848  TIP3837     0.2052
  11707 H2          5.9100  -24.0870   -9.1920 H     3848  TIP3837     0.2052
  11708 OH2       -20.2810    9.4980   -3.4340 O.3   3849  TIP3838    -0.4105
  11709 H1        -20.4640    8.8980   -4.1570 H     3849  TIP3838     0.2052
  11710 H2        -19.4940    9.9700   -3.7070 H     3849  TIP3838     0.2052
  11711 OH2       -11.4720    6.1940   -2.9480 O.3   3850  TIP3839    -0.4105
  11712 H1        -11.5180    7.1220   -2.7160 H     3850  TIP3839     0.2052
  11713 H2        -10.7700    6.1430   -3.5960 H     3850  TIP3839     0.2052
  11714 OH2       -15.5810    7.3850   -0.4450 O.3   3851  TIP3840    -0.4105
  11715 H1        -15.4370    6.4560   -0.2670 H     3851  TIP3840     0.2052
  11716 H2        -16.5310    7.4700   -0.5270 H     3851  TIP3840     0.2052
  11717 OH2       -19.3000    1.2750    3.9250 O.3   3852  TIP3841    -0.4105
  11718 H1        -18.7100    2.0270    3.8690 H     3852  TIP3841     0.2052
  11719 H2        -18.7280    0.5140    3.8340 H     3852  TIP3841     0.2052
  11720 OH2       -21.6140    3.3410    1.2440 O.3   3853  TIP3842    -0.4105
  11721 H1        -21.0790    2.9920    1.9570 H     3853  TIP3842     0.2052
  11722 H2        -21.7040    4.2720    1.4450 H     3853  TIP3842     0.2052
  11723 OH2         6.4830    6.7460   11.4810 O.3   3854  TIP3843    -0.4105
  11724 H1          6.8360    6.2380   12.2110 H     3854  TIP3843     0.2052
  11725 H2          5.6120    7.0150   11.7740 H     3854  TIP3843     0.2052
  11726 OH2       -19.4540  -13.6190   -3.2120 O.3   3855  TIP3844    -0.4105
  11727 H1        -19.7880  -13.0330   -3.8910 H     3855  TIP3844     0.2052
  11728 H2        -20.1620  -13.6720   -2.5710 H     3855  TIP3844     0.2052
  11729 OH2       -13.2490   -6.2960  -11.5180 O.3   3856  TIP3845    -0.4105
  11730 H1        -12.6690   -7.0370  -11.3380 H     3856  TIP3845     0.2052
  11731 H2        -14.1250   -6.6800  -11.5540 H     3856  TIP3845     0.2052
  11732 OH2       -21.6820  -14.0700  -18.0560 O.3   3857  TIP3846    -0.4105
  11733 H1        -21.5130  -14.9570  -18.3720 H     3857  TIP3846     0.2052
  11734 H2        -21.1250  -13.9800  -17.2830 H     3857  TIP3846     0.2052
  11735 OH2        -9.8970  -11.5340   -9.0860 O.3   3858  TIP3847    -0.4105
  11736 H1         -8.9900  -11.2400   -9.0010 H     3858  TIP3847     0.2052
  11737 H2         -9.8600  -12.2430   -9.7290 H     3858  TIP3847     0.2052
  11738 OH2        -8.4850    6.4200   22.9070 O.3   3859  TIP3848    -0.4105
  11739 H1         -7.8770    6.3660   23.6440 H     3859  TIP3848     0.2052
  11740 H2         -9.2850    6.7870   23.2830 H     3859  TIP3848     0.2052
  11741 OH2         1.8220    3.0710  -19.2020 O.3   3860  TIP3849    -0.4105
  11742 H1          2.2020    3.8570  -18.8080 H     3860  TIP3849     0.2052
  11743 H2          1.0230    2.9140  -18.7000 H     3860  TIP3849     0.2052
  11744 OH2        -4.2610    9.9280   -7.8690 O.3   3861  TIP3850    -0.4105
  11745 H1         -5.1560   10.2090   -7.6750 H     3861  TIP3850     0.2052
  11746 H2         -4.2710    8.9810   -7.7250 H     3861  TIP3850     0.2052
  11747 OH2        18.5230   14.8270   -3.7050 O.3   3862  TIP3851    -0.4105
  11748 H1         18.7680   15.6200   -4.1820 H     3862  TIP3851     0.2052
  11749 H2         17.5810   14.9180   -3.5560 H     3862  TIP3851     0.2052
  11750 OH2       -28.1670   -1.4960    0.2180 O.3   3863  TIP3852    -0.4105
  11751 H1        -29.0710   -1.1820    0.2000 H     3863  TIP3852     0.2052
  11752 H2        -28.1500   -2.1370    0.9300 H     3863  TIP3852     0.2052
  11753 OH2        11.1720   14.5580   25.3710 O.3   3864  TIP3853    -0.4105
  11754 H1         11.7590   15.2830   25.1570 H     3864  TIP3853     0.2052
  11755 H2         10.9390   14.7010   26.2890 H     3864  TIP3853     0.2052
  11756 OH2       -25.5670   14.5520    9.3980 O.3   3865  TIP3854    -0.4105
  11757 H1        -24.8410   14.2610    8.8450 H     3865  TIP3854     0.2052
  11758 H2        -26.2140   14.8960    8.7820 H     3865  TIP3854     0.2052
  11759 OH2         4.9880  -20.4610   15.3320 O.3   3866  TIP3855    -0.4105
  11760 H1          4.7030  -20.8310   16.1670 H     3866  TIP3855     0.2052
  11761 H2          4.9060  -21.1830   14.7090 H     3866  TIP3855     0.2052
  11762 OH2        -5.2540   30.9050    9.6310 O.3   3867  TIP3856    -0.4105
  11763 H1         -4.7360   31.3890   10.2740 H     3867  TIP3856     0.2052
  11764 H2         -5.4790   30.0850   10.0710 H     3867  TIP3856     0.2052
  11765 OH2       -16.4740  -15.4390   16.0570 O.3   3868  TIP3857    -0.4105
  11766 H1        -15.9550  -14.6370   16.1120 H     3868  TIP3857     0.2052
  11767 H2        -16.7120  -15.5080   15.1330 H     3868  TIP3857     0.2052
  11768 OH2         4.6550   21.3790  -17.6870 O.3   3869  TIP3858    -0.4105
  11769 H1          4.6650   22.1380  -17.1040 H     3869  TIP3858     0.2052
  11770 H2          4.2160   21.6900  -18.4790 H     3869  TIP3858     0.2052
  11771 OH2        -0.9650   19.7880   24.9320 O.3   3870  TIP3859    -0.4105
  11772 H1         -0.6790   20.6900   25.0800 H     3870  TIP3859     0.2052
  11773 H2         -1.3070   19.7880   24.0380 H     3870  TIP3859     0.2052
  11774 OH2        11.8130    0.9350    7.3090 O.3   3871  TIP3860    -0.4105
  11775 H1         11.4800    0.3330    7.9740 H     3871  TIP3860     0.2052
  11776 H2         11.6190    1.8060    7.6540 H     3871  TIP3860     0.2052
  11777 OH2        18.4140    4.3880   11.9930 O.3   3872  TIP3861    -0.4105
  11778 H1         18.5550    5.2260   11.5530 H     3872  TIP3861     0.2052
  11779 H2         18.8300    4.4940   12.8490 H     3872  TIP3861     0.2052
  11780 OH2       -20.1360    9.1220    6.8150 O.3   3873  TIP3862    -0.4105
  11781 H1        -21.0680    9.3350    6.8480 H     3873  TIP3862     0.2052
  11782 H2        -19.9820    8.8550    5.9090 H     3873  TIP3862     0.2052
  11783 OH2        -3.2350    5.9080    7.9700 O.3   3874  TIP3863    -0.4105
  11784 H1         -2.4220    5.4390    7.7850 H     3874  TIP3863     0.2052
  11785 H2         -3.0050    6.8330    7.8740 H     3874  TIP3863     0.2052
  11786 OH2         4.8500   19.0400    8.3800 O.3   3875  TIP3864    -0.4105
  11787 H1          4.7790   18.3910    7.6800 H     3875  TIP3864     0.2052
  11788 H2          4.0890   19.6080    8.2590 H     3875  TIP3864     0.2052
  11789 OH2        -7.3070    5.6490   -6.9890 O.3   3876  TIP3865    -0.4105
  11790 H1         -7.1630    5.0240   -6.2780 H     3876  TIP3865     0.2052
  11791 H2         -6.6290    5.4430   -7.6320 H     3876  TIP3865     0.2052
  11792 OH2        -0.4920  -12.0960   30.7940 O.3   3877  TIP3866    -0.4105
  11793 H1         -1.3980  -12.2050   31.0830 H     3877  TIP3866     0.2052
  11794 H2         -0.1620  -12.9890   30.6970 H     3877  TIP3866     0.2052
  11795 OH2        26.0020    5.0660   10.9940 O.3   3878  TIP3867    -0.4105
  11796 H1         26.8200    4.6410   10.7370 H     3878  TIP3867     0.2052
  11797 H2         26.1670    5.3900   11.8790 H     3878  TIP3867     0.2052
  11798 OH2        21.4920    8.6200    3.1590 O.3   3879  TIP3868    -0.4105
  11799 H1         22.2870    9.1330    3.0090 H     3879  TIP3868     0.2052
  11800 H2         21.4880    8.4530    4.1010 H     3879  TIP3868     0.2052
  11801 OH2        -4.2140    6.0880   29.2570 O.3   3880  TIP3869    -0.4105
  11802 H1         -3.3400    5.8340   28.9610 H     3880  TIP3869     0.2052
  11803 H2         -4.6560    5.2600   29.4420 H     3880  TIP3869     0.2052
  11804 OH2        32.2410   11.8500   -4.6100 O.3   3881  TIP3870    -0.4105
  11805 H1         33.0080   11.4390   -5.0100 H     3881  TIP3870     0.2052
  11806 H2         31.9350   12.4760   -5.2660 H     3881  TIP3870     0.2052
  11807 OH2        -9.5030   18.3810  -16.1870 O.3   3882  TIP3871    -0.4105
  11808 H1         -9.5220   17.8860  -15.3680 H     3882  TIP3871     0.2052
  11809 H2        -10.3440   18.1920  -16.6020 H     3882  TIP3871     0.2052
  11810 OH2         2.4970  -14.3550   -2.0860 O.3   3883  TIP3872    -0.4105
  11811 H1          2.5400  -13.7760   -2.8470 H     3883  TIP3872     0.2052
  11812 H2          2.8380  -15.1910   -2.4020 H     3883  TIP3872     0.2052
  11813 OH2        -0.6050    5.1220   11.9320 O.3   3884  TIP3873    -0.4105
  11814 H1         -0.9350    4.3340   12.3650 H     3884  TIP3873     0.2052
  11815 H2         -0.8400    5.0060   11.0120 H     3884  TIP3873     0.2052
  11816 OH2       -24.4860   -6.3190    2.6680 O.3   3885  TIP3874    -0.4105
  11817 H1        -23.8680   -7.0460    2.7330 H     3885  TIP3874     0.2052
  11818 H2        -23.9370   -5.5350    2.6860 H     3885  TIP3874     0.2052
  11819 OH2        -8.8550    4.5170   16.0290 O.3   3886  TIP3875    -0.4105
  11820 H1         -8.1430    4.5300   15.3900 H     3886  TIP3875     0.2052
  11821 H2         -9.0190    3.5880   16.1870 H     3886  TIP3875     0.2052
  11822 OH2        11.6790   -2.6100   21.2640 O.3   3887  TIP3876    -0.4105
  11823 H1         11.6900   -3.2080   20.5160 H     3887  TIP3876     0.2052
  11824 H2         11.5470   -3.1770   22.0230 H     3887  TIP3876     0.2052
  11825 OH2        -9.6530   -5.4460  -16.4180 O.3   3888  TIP3877    -0.4105
  11826 H1         -9.6230   -5.4090  -17.3740 H     3888  TIP3877     0.2052
  11827 H2         -8.9500   -6.0500  -16.1790 H     3888  TIP3877     0.2052
  11828 OH2        12.5390   19.5180    6.5000 O.3   3889  TIP3878    -0.4105
  11829 H1         13.1650   19.9860    5.9470 H     3889  TIP3878     0.2052
  11830 H2         12.8350   18.6090    6.4810 H     3889  TIP3878     0.2052
  11831 OH2        26.3400    4.7880    0.9940 O.3   3890  TIP3879    -0.4105
  11832 H1         25.5040    4.8560    0.5330 H     3890  TIP3879     0.2052
  11833 H2         26.2300    4.0420    1.5830 H     3890  TIP3879     0.2052
  11834 OH2       -25.3780   -6.4420  -11.9960 O.3   3891  TIP3880    -0.4105
  11835 H1        -25.5370   -7.1970  -12.5630 H     3891  TIP3880     0.2052
  11836 H2        -24.6250   -6.0010  -12.3880 H     3891  TIP3880     0.2052
  11837 OH2        23.5450    8.8060   15.2420 O.3   3892  TIP3881    -0.4105
  11838 H1         23.3740    8.5250   14.3430 H     3892  TIP3881     0.2052
  11839 H2         23.5620    9.7620   15.1950 H     3892  TIP3881     0.2052
  11840 OH2        -9.7380    8.5180  -26.4810 O.3   3893  TIP3882    -0.4105
  11841 H1        -10.0120    8.8820  -27.3230 H     3893  TIP3882     0.2052
  11842 H2         -8.7830    8.5690  -26.4970 H     3893  TIP3882     0.2052
  11843 OH2         1.9980   20.4680   18.5320 O.3   3894  TIP3883    -0.4105
  11844 H1          2.7580   20.8430   18.9760 H     3894  TIP3883     0.2052
  11845 H2          1.3010   21.1110   18.6650 H     3894  TIP3883     0.2052
  11846 OH2       -10.5930   -3.9170   13.4160 O.3   3895  TIP3884    -0.4105
  11847 H1        -11.4100   -3.4450   13.5740 H     3895  TIP3884     0.2052
  11848 H2        -10.3690   -4.3000   14.2640 H     3895  TIP3884     0.2052
  11849 OH2        25.0620   12.3780   -2.0020 O.3   3896  TIP3885    -0.4105
  11850 H1         24.2580   12.0470   -2.4010 H     3896  TIP3885     0.2052
  11851 H2         25.1460   13.2710   -2.3350 H     3896  TIP3885     0.2052
  11852 OH2         5.6650  -21.3760   19.9360 O.3   3897  TIP3886    -0.4105
  11853 H1          5.1250  -21.1780   19.1700 H     3897  TIP3886     0.2052
  11854 H2          5.7770  -22.3260   19.9110 H     3897  TIP3886     0.2052
  11855 OH2        15.4250   -8.2850    2.4170 O.3   3898  TIP3887    -0.4105
  11856 H1         14.7620   -8.8740    2.0570 H     3898  TIP3887     0.2052
  11857 H2         14.9290   -7.5380    2.7490 H     3898  TIP3887     0.2052
  11858 OH2       -19.3610  -12.3710   19.0950 O.3   3899  TIP3888    -0.4105
  11859 H1        -19.4210  -11.5270   18.6490 H     3899  TIP3888     0.2052
  11860 H2        -19.0570  -12.9780   18.4190 H     3899  TIP3888     0.2052
  11861 OH2         4.2990  -22.6000  -18.1230 O.3   3900  TIP3889    -0.4105
  11862 H1          4.1040  -22.1530  -17.2990 H     3900  TIP3889     0.2052
  11863 H2          5.1300  -23.0490  -17.9620 H     3900  TIP3889     0.2052
  11864 OH2       -23.2490   -1.6360   -5.3130 O.3   3901  TIP3890    -0.4105
  11865 H1        -23.7620   -2.0040   -6.0320 H     3901  TIP3890     0.2052
  11866 H2        -23.6410   -0.7770   -5.1530 H     3901  TIP3890     0.2052
  11867 OH2         1.2090    0.7850   29.4200 O.3   3902  TIP3891    -0.4105
  11868 H1          0.7680    0.2620   28.7510 H     3902  TIP3891     0.2052
  11869 H2          0.9820    1.6900   29.2050 H     3902  TIP3891     0.2052
  11870 OH2        23.2370  -14.0990   -7.3780 O.3   3903  TIP3892    -0.4105
  11871 H1         22.4780  -14.3080   -6.8340 H     3903  TIP3892     0.2052
  11872 H2         23.9600  -14.5810   -6.9750 H     3903  TIP3892     0.2052
  11873 OH2         6.8140  -16.0400   21.7820 O.3   3904  TIP3893    -0.4105
  11874 H1          6.8850  -16.8110   22.3440 H     3904  TIP3893     0.2052
  11875 H2          7.2410  -15.3410   22.2770 H     3904  TIP3893     0.2052
  11876 OH2       -17.3020  -11.5360  -12.6430 O.3   3905  TIP3894    -0.4105
  11877 H1        -18.2330  -11.6390  -12.4450 H     3905  TIP3894     0.2052
  11878 H2        -17.2320  -10.6600  -13.0210 H     3905  TIP3894     0.2052
  11879 OH2         1.7280  -30.0200  -10.8820 O.3   3906  TIP3895    -0.4105
  11880 H1          2.2710  -29.2530  -10.7010 H     3906  TIP3895     0.2052
  11881 H2          1.1960  -30.1290  -10.0940 H     3906  TIP3895     0.2052
  11882 OH2        11.1140    2.5460   -0.6230 O.3   3907  TIP3896    -0.4105
  11883 H1         10.2830    2.3520   -1.0560 H     3907  TIP3896     0.2052
  11884 H2         11.6360    1.7520   -0.7380 H     3907  TIP3896     0.2052
  11885 OH2         9.6410  -34.3730   -8.3870 O.3   3908  TIP3897    -0.4105
  11886 H1          9.5640  -35.1410   -8.9540 H     3908  TIP3897     0.2052
  11887 H2          9.8680  -33.6580   -8.9810 H     3908  TIP3897     0.2052
  11888 OH2         1.2550  -22.1690    9.7170 O.3   3909  TIP3898    -0.4105
  11889 H1          0.9420  -21.2780    9.5570 H     3909  TIP3898     0.2052
  11890 H2          1.8800  -22.3340    9.0110 H     3909  TIP3898     0.2052
  11891 OH2        -6.8880   22.8180    8.1520 O.3   3910  TIP3899    -0.4105
  11892 H1         -7.6370   22.9090    7.5640 H     3910  TIP3899     0.2052
  11893 H2         -6.1230   22.9070    7.5830 H     3910  TIP3899     0.2052
  11894 OH2       -18.9650   16.5970   -9.1370 O.3   3911  TIP3900    -0.4105
  11895 H1        -18.1500   16.4570   -9.6210 H     3911  TIP3900     0.2052
  11896 H2        -19.6460   16.2350   -9.7040 H     3911  TIP3900     0.2052
  11897 OH2       -15.4840   -0.8350   -2.8530 O.3   3912  TIP3901    -0.4105
  11898 H1        -15.6070   -0.1670   -2.1790 H     3912  TIP3901     0.2052
  11899 H2        -15.1250   -1.5870   -2.3820 H     3912  TIP3901     0.2052
  11900 OH2       -13.5580   11.1940  -16.0730 O.3   3913  TIP3902    -0.4105
  11901 H1        -13.0490   11.2880  -15.2680 H     3913  TIP3902     0.2052
  11902 H2        -13.9220   10.3100  -16.0250 H     3913  TIP3902     0.2052
  11903 OH2        16.8250   -3.0750   16.0930 O.3   3914  TIP3903    -0.4105
  11904 H1         17.5970   -3.0130   15.5310 H     3914  TIP3903     0.2052
  11905 H2         17.0930   -2.6650   16.9150 H     3914  TIP3903     0.2052
  11906 OH2        29.9540   -8.8580   -3.0930 O.3   3915  TIP3904    -0.4105
  11907 H1         29.0240   -9.0820   -3.1090 H     3915  TIP3904     0.2052
  11908 H2         30.0620   -8.3400   -2.2950 H     3915  TIP3904     0.2052
  11909 OH2         5.3950   -0.5140   23.9210 O.3   3916  TIP3905    -0.4105
  11910 H1          5.5790   -0.3010   24.8360 H     3916  TIP3905     0.2052
  11911 H2          4.6010   -0.0210   23.7150 H     3916  TIP3905     0.2052
  11912 OH2        -2.9340   19.3080  -23.3220 O.3   3917  TIP3906    -0.4105
  11913 H1         -2.5680   20.0280  -23.8360 H     3917  TIP3906     0.2052
  11914 H2         -2.3400   18.5750  -23.4800 H     3917  TIP3906     0.2052
  11915 OH2        -1.9050   -9.1970  -13.8800 O.3   3918  TIP3907    -0.4105
  11916 H1         -1.2880   -9.9070  -13.7030 H     3918  TIP3907     0.2052
  11917 H2         -2.4030   -9.4960  -14.6400 H     3918  TIP3907     0.2052
  11918 OH2        19.2470   14.2890    3.3110 O.3   3919  TIP3908    -0.4105
  11919 H1         19.2030   14.7120    2.4540 H     3919  TIP3908     0.2052
  11920 H2         19.2390   15.0130    3.9370 H     3919  TIP3908     0.2052
  11921 OH2         8.4860  -25.7730   15.5420 O.3   3920  TIP3909    -0.4105
  11922 H1          8.6690  -25.0490   16.1400 H     3920  TIP3909     0.2052
  11923 H2          7.5670  -25.9880   15.6990 H     3920  TIP3909     0.2052
  11924 OH2        21.7730    8.0060    5.9150 O.3   3921  TIP3910    -0.4105
  11925 H1         21.0920    7.3480    5.7730 H     3921  TIP3910     0.2052
  11926 H2         22.5920    7.5480    5.7230 H     3921  TIP3910     0.2052
  11927 OH2       -26.8500    9.6730    5.7070 O.3   3922  TIP3911    -0.4105
  11928 H1        -26.6790   10.6140    5.6550 H     3922  TIP3911     0.2052
  11929 H2        -27.4080    9.4890    4.9520 H     3922  TIP3911     0.2052
  11930 OH2       -18.5220    8.0170   -6.1000 O.3   3923  TIP3912    -0.4105
  11931 H1        -19.4170    7.8960   -5.7830 H     3923  TIP3912     0.2052
  11932 H2        -18.1330    7.1440   -6.0620 H     3923  TIP3912     0.2052
  11933 OH2       -24.6370   11.3040    1.7100 O.3   3924  TIP3913    -0.4105
  11934 H1        -25.4810   11.6230    1.3880 H     3924  TIP3913     0.2052
  11935 H2        -24.2430   10.8640    0.9570 H     3924  TIP3913     0.2052
  11936 OH2       -13.1370  -18.9780    9.5680 O.3   3925  TIP3914    -0.4105
  11937 H1        -13.0570  -18.6580    8.6690 H     3925  TIP3914     0.2052
  11938 H2        -13.7350  -18.3600    9.9900 H     3925  TIP3914     0.2052
  11939 OH2       -10.6570    6.8770   19.3330 O.3   3926  TIP3915    -0.4105
  11940 H1        -11.3150    6.9880   20.0190 H     3926  TIP3915     0.2052
  11941 H2         -9.9460    6.3960   19.7570 H     3926  TIP3915     0.2052
  11942 OH2        -8.9330   15.9260    3.2880 O.3   3927  TIP3916    -0.4105
  11943 H1         -8.9150   16.8160    3.6400 H     3927  TIP3916     0.2052
  11944 H2         -8.8890   15.3620    4.0600 H     3927  TIP3916     0.2052
  11945 OH2        -9.7980  -18.7410   15.3880 O.3   3928  TIP3917    -0.4105
  11946 H1         -9.8270  -19.4560   14.7520 H     3928  TIP3917     0.2052
  11947 H2         -9.6880  -17.9520   14.8570 H     3928  TIP3917     0.2052
  11948 OH2        -8.4920   21.9450   -5.4020 O.3   3929  TIP3918    -0.4105
  11949 H1         -7.8790   21.9780   -6.1360 H     3929  TIP3918     0.2052
  11950 H2         -9.2360   22.4760   -5.6870 H     3929  TIP3918     0.2052
  11951 OH2         2.6410  -13.6190  -15.7900 O.3   3930  TIP3919    -0.4105
  11952 H1          1.9840  -14.2050  -15.4130 H     3930  TIP3919     0.2052
  11953 H2          3.2030  -13.3820  -15.0520 H     3930  TIP3919     0.2052
  11954 OH2        -5.7680  -14.4040   -7.1450 O.3   3931  TIP3920    -0.4105
  11955 H1         -5.1930  -15.1550   -7.2910 H     3931  TIP3920     0.2052
  11956 H2         -6.0930  -14.1760   -8.0160 H     3931  TIP3920     0.2052
  11957 OH2        15.6290    2.3240   -4.4830 O.3   3932  TIP3921    -0.4105
  11958 H1         15.9540    3.1950   -4.2570 H     3932  TIP3921     0.2052
  11959 H2         16.1990    2.0320   -5.1940 H     3932  TIP3921     0.2052
  11960 OH2        -6.4060   -6.9890   11.2230 O.3   3933  TIP3922    -0.4105
  11961 H1         -6.9300   -6.9670   12.0240 H     3933  TIP3922     0.2052
  11962 H2         -5.6080   -6.5090   11.4450 H     3933  TIP3922     0.2052
  11963 OH2        11.1120   22.7410    1.1480 O.3   3934  TIP3923    -0.4105
  11964 H1         11.6380   23.4520    1.5120 H     3934  TIP3923     0.2052
  11965 H2         11.5400   21.9420    1.4580 H     3934  TIP3923     0.2052
  11966 OH2        -4.8340  -21.6960  -17.3860 O.3   3935  TIP3924    -0.4105
  11967 H1         -5.6600  -21.3150  -17.6860 H     3935  TIP3924     0.2052
  11968 H2         -4.6230  -21.2120  -16.5870 H     3935  TIP3924     0.2052
  11969 OH2        -6.0490  -16.0360  -26.3350 O.3   3936  TIP3925    -0.4105
  11970 H1         -6.7420  -15.4040  -26.5260 H     3936  TIP3925     0.2052
  11971 H2         -6.5020  -16.8760  -26.2630 H     3936  TIP3925     0.2052
  11972 OH2         7.5150   19.3450    8.7260 O.3   3937  TIP3926    -0.4105
  11973 H1          7.6740   19.9950    8.0430 H     3937  TIP3926     0.2052
  11974 H2          6.5710   19.1860    8.6920 H     3937  TIP3926     0.2052
  11975 OH2       -16.6230   11.9460   11.0830 O.3   3938  TIP3927    -0.4105
  11976 H1        -15.8140   11.4360   11.1130 H     3938  TIP3927     0.2052
  11977 H2        -16.7750   12.1020   10.1510 H     3938  TIP3927     0.2052
  11978 OH2        12.3570   11.9020    2.9750 O.3   3939  TIP3928    -0.4105
  11979 H1         13.2230   11.7670    2.5890 H     3939  TIP3928     0.2052
  11980 H2         12.2850   11.2230    3.6460 H     3939  TIP3928     0.2052
  11981 OH2        -1.3650  -18.5510   17.2810 O.3   3940  TIP3929    -0.4105
  11982 H1         -0.7510  -17.8350   17.1170 H     3940  TIP3929     0.2052
  11983 H2         -1.4120  -19.0220   16.4490 H     3940  TIP3929     0.2052
  11984 OH2         3.9800   19.6410   11.8430 O.3   3941  TIP3930    -0.4105
  11985 H1          4.6580   20.2340   11.5180 H     3941  TIP3930     0.2052
  11986 H2          3.4010   19.5060   11.0920 H     3941  TIP3930     0.2052
  11987 OH2         1.6930    3.8500  -22.0110 O.3   3942  TIP3931    -0.4105
  11988 H1          2.0620    3.3590  -21.2770 H     3942  TIP3931     0.2052
  11989 H2          1.8380    4.7680  -21.7820 H     3942  TIP3931     0.2052
  11990 OH2        -1.4210  -10.0880   -3.8150 O.3   3943  TIP3932    -0.4105
  11991 H1         -0.7770  -10.7590   -4.0410 H     3943  TIP3932     0.2052
  11992 H2         -1.0200   -9.6040   -3.0930 H     3943  TIP3932     0.2052
  11993 OH2       -11.6230  -13.7860   27.6650 O.3   3944  TIP3933    -0.4105
  11994 H1        -11.6520  -13.1220   26.9770 H     3944  TIP3933     0.2052
  11995 H2        -11.2610  -14.5610   27.2360 H     3944  TIP3933     0.2052
  11996 OH2        10.8310  -29.6080   -9.0580 O.3   3945  TIP3934    -0.4105
  11997 H1         10.1240  -28.9790   -8.9180 H     3945  TIP3934     0.2052
  11998 H2         10.3870  -30.4500   -9.1610 H     3945  TIP3934     0.2052
  11999 OH2         4.4510   15.3350   13.5510 O.3   3946  TIP3935    -0.4105
  12000 H1          4.5040   16.2910   13.5510 H     3946  TIP3935     0.2052
  12001 H2          4.6720   15.0830   14.4470 H     3946  TIP3935     0.2052
  12002 OH2        -6.0740   18.2330    7.2770 O.3   3947  TIP3936    -0.4105
  12003 H1         -6.6520   17.6590    6.7750 H     3947  TIP3936     0.2052
  12004 H2         -6.5400   18.3830    8.0990 H     3947  TIP3936     0.2052
  12005 OH2        23.5650    8.2360   12.3220 O.3   3948  TIP3937    -0.4105
  12006 H1         23.1500    9.0480   12.0310 H     3948  TIP3937     0.2052
  12007 H2         24.3610    8.1700   11.7950 H     3948  TIP3937     0.2052
  12008 OH2         3.5510   -7.0550  -25.6480 O.3   3949  TIP3938    -0.4105
  12009 H1          3.5800   -7.0300  -26.6050 H     3949  TIP3938     0.2052
  12010 H2          3.0550   -7.8480  -25.4440 H     3949  TIP3938     0.2052
  12011 OH2       -14.5370  -19.1170   -2.9550 O.3   3950  TIP3939    -0.4105
  12012 H1        -15.0890  -19.7690   -3.3870 H     3950  TIP3939     0.2052
  12013 H2        -13.8310  -18.9480   -3.5790 H     3950  TIP3939     0.2052
  12014 OH2         2.2640    8.8550  -19.1860 O.3   3951  TIP3940    -0.4105
  12015 H1          2.1080    8.2750  -19.9320 H     3951  TIP3940     0.2052
  12016 H2          2.9280    8.4040  -18.6660 H     3951  TIP3940     0.2052
  12017 OH2       -32.1780   13.2460    5.2160 O.3   3952  TIP3941    -0.4105
  12018 H1        -31.8950   12.7310    5.9710 H     3952  TIP3941     0.2052
  12019 H2        -32.1380   14.1540    5.5160 H     3952  TIP3941     0.2052
  12020 OH2         9.0860   16.7140  -13.2510 O.3   3953  TIP3942    -0.4105
  12021 H1          8.4000   17.2320  -12.8280 H     3953  TIP3942     0.2052
  12022 H2          9.3190   17.2170  -14.0310 H     3953  TIP3942     0.2052
  12023 OH2        15.5680   -6.4860    7.0980 O.3   3954  TIP3943    -0.4105
  12024 H1         14.9510   -7.1840    6.8790 H     3954  TIP3943     0.2052
  12025 H2         15.8830   -6.7090    7.9730 H     3954  TIP3943     0.2052
  12026 OH2       -18.4520    7.1180   14.0470 O.3   3955  TIP3944    -0.4105
  12027 H1        -18.3010    7.6330   13.2550 H     3955  TIP3944     0.2052
  12028 H2        -17.5780    6.8510   14.3310 H     3955  TIP3944     0.2052
  12029 OH2       -11.9780   22.0390  -10.0930 O.3   3956  TIP3945    -0.4105
  12030 H1        -12.1770   21.3130   -9.5020 H     3956  TIP3945     0.2052
  12031 H2        -11.9560   22.8100   -9.5270 H     3956  TIP3945     0.2052
  12032 OH2        -5.1790  -23.0850  -10.3170 O.3   3957  TIP3946    -0.4105
  12033 H1         -6.0660  -23.3980  -10.4930 H     3957  TIP3946     0.2052
  12034 H2         -4.6720  -23.3570  -11.0830 H     3957  TIP3946     0.2052
  12035 OH2         2.3880   -7.2140   -9.6880 O.3   3958  TIP3947    -0.4105
  12036 H1          1.8790   -6.4370   -9.4560 H     3958  TIP3947     0.2052
  12037 H2          1.7450   -7.9230   -9.7120 H     3958  TIP3947     0.2052
  12038 OH2        12.3990  -28.4310    8.7500 O.3   3959  TIP3948    -0.4105
  12039 H1         12.0450  -27.6460    8.3340 H     3959  TIP3948     0.2052
  12040 H2         12.3260  -28.2590    9.6890 H     3959  TIP3948     0.2052
  12041 OH2        21.0060    6.1110   -1.5870 O.3   3960  TIP3949    -0.4105
  12042 H1         20.3290    6.7230   -1.8760 H     3960  TIP3949     0.2052
  12043 H2         21.6850    6.1690   -2.2580 H     3960  TIP3949     0.2052
  12044 OH2        -6.9040  -18.1620  -15.5910 O.3   3961  TIP3950    -0.4105
  12045 H1         -7.6860  -17.6240  -15.4670 H     3961  TIP3950     0.2052
  12046 H2         -6.2220  -17.7130  -15.0920 H     3961  TIP3950     0.2052
  12047 OH2        30.3400   -0.1960  -10.8250 O.3   3962  TIP3951    -0.4105
  12048 H1         31.2810   -0.3680  -10.8270 H     3962  TIP3951     0.2052
  12049 H2         29.9380   -1.0590  -10.9240 H     3962  TIP3951     0.2052
  12050 OH2        -1.5310   30.9850   19.4310 O.3   3963  TIP3952    -0.4105
  12051 H1         -1.2560   30.4320   20.1620 H     3963  TIP3952     0.2052
  12052 H2         -1.3530   31.8780   19.7260 H     3963  TIP3952     0.2052
  12053 OH2       -23.6550   -8.1120   -3.8080 O.3   3964  TIP3953    -0.4105
  12054 H1        -23.6290   -7.2360   -4.1940 H     3964  TIP3953     0.2052
  12055 H2        -24.1310   -8.6410   -4.4490 H     3964  TIP3953     0.2052
  12056 OH2         3.5050    9.7520   23.1180 O.3   3965  TIP3954    -0.4105
  12057 H1          4.3930   10.0240   23.3520 H     3965  TIP3954     0.2052
  12058 H2          3.6290    8.9860   22.5580 H     3965  TIP3954     0.2052
  12059 OH2         6.6030   19.6490  -26.5150 O.3   3966  TIP3955    -0.4105
  12060 H1          6.8100   20.1880  -27.2780 H     3966  TIP3955     0.2052
  12061 H2          7.4330   19.5730  -26.0430 H     3966  TIP3955     0.2052
  12062 OH2        21.7700   -2.9390    7.0470 O.3   3967  TIP3956    -0.4105
  12063 H1         21.0840   -2.8960    7.7130 H     3967  TIP3956     0.2052
  12064 H2         22.5410   -3.2600    7.5160 H     3967  TIP3956     0.2052
  12065 OH2        -6.0210   23.4490  -19.4910 O.3   3968  TIP3957    -0.4105
  12066 H1         -5.9540   22.7800  -20.1730 H     3968  TIP3957     0.2052
  12067 H2         -5.1140   23.6250  -19.2390 H     3968  TIP3957     0.2052
  12068 OH2       -15.2800    9.7340   -7.4800 O.3   3969  TIP3958    -0.4105
  12069 H1        -16.1620   10.0870   -7.5950 H     3969  TIP3958     0.2052
  12070 H2        -15.2280    9.0100   -8.1040 H     3969  TIP3958     0.2052
  12071 OH2        17.7460   18.8800   11.8350 O.3   3970  TIP3959    -0.4105
  12072 H1         18.4540   18.2740   12.0540 H     3970  TIP3959     0.2052
  12073 H2         16.9860   18.3180   11.6850 H     3970  TIP3959     0.2052
  12074 OH2        26.1580   -5.6690    0.2670 O.3   3971  TIP3960    -0.4105
  12075 H1         26.1750   -5.3970   -0.6500 H     3971  TIP3960     0.2052
  12076 H2         25.6700   -6.4920    0.2650 H     3971  TIP3960     0.2052
  12077 OH2        -4.7460   -0.9430  -12.8540 O.3   3972  TIP3961    -0.4105
  12078 H1         -3.9250   -1.4290  -12.7850 H     3972  TIP3961     0.2052
  12079 H2         -4.9930   -1.0190  -13.7760 H     3972  TIP3961     0.2052
  12080 OH2        -5.1840   -8.7450   17.6210 O.3   3973  TIP3962    -0.4105
  12081 H1         -5.7000   -8.9240   18.4070 H     3973  TIP3962     0.2052
  12082 H2         -4.6150   -9.5090   17.5270 H     3973  TIP3962     0.2052
  12083 OH2       -23.0770  -10.9790    0.0110 O.3   3974  TIP3963    -0.4105
  12084 H1        -23.4360  -10.1170   -0.1990 H     3974  TIP3963     0.2052
  12085 H2        -23.6590  -11.3240    0.6880 H     3974  TIP3963     0.2052
  12086 OH2       -19.8960  -15.2510   14.7710 O.3   3975  TIP3964    -0.4105
  12087 H1        -19.1820  -14.9760   14.1960 H     3975  TIP3964     0.2052
  12088 H2        -19.6380  -14.9430   15.6390 H     3975  TIP3964     0.2052
  12089 OH2       -31.2640   -1.5230    1.0650 O.3   3976  TIP3965    -0.4105
  12090 H1        -31.4760   -2.0530    0.2960 H     3976  TIP3965     0.2052
  12091 H2        -30.9450   -2.1530    1.7100 H     3976  TIP3965     0.2052
  12092 OH2       -10.4360   14.5220   17.4630 O.3   3977  TIP3966    -0.4105
  12093 H1        -10.9560   15.2140   17.0550 H     3977  TIP3966     0.2052
  12094 H2         -9.9350   14.9690   18.1450 H     3977  TIP3966     0.2052
  12095 OH2        21.4440  -12.2010   11.5580 O.3   3978  TIP3967    -0.4105
  12096 H1         22.2450  -11.9560   11.0950 H     3978  TIP3967     0.2052
  12097 H2         20.7770  -11.6090   11.2130 H     3978  TIP3967     0.2052
  12098 OH2        17.2050   18.8320   15.4250 O.3   3979  TIP3968    -0.4105
  12099 H1         17.6600   19.4940   14.9050 H     3979  TIP3968     0.2052
  12100 H2         16.9430   19.2930   16.2220 H     3979  TIP3968     0.2052
  12101 OH2        -6.0340  -20.8000    1.7420 O.3   3980  TIP3969    -0.4105
  12102 H1         -5.5050  -20.0150    1.5970 H     3980  TIP3969     0.2052
  12103 H2         -6.7490  -20.7270    1.1100 H     3980  TIP3969     0.2052
  12104 OH2       -23.9630   23.6800   -1.1620 O.3   3981  TIP3970    -0.4105
  12105 H1        -23.5670   23.4360   -0.3260 H     3981  TIP3970     0.2052
  12106 H2        -24.1290   24.6190   -1.0840 H     3981  TIP3970     0.2052
  12107 OH2         1.3580   -9.3020  -17.1730 O.3   3982  TIP3971    -0.4105
  12108 H1          1.8620   -8.5590  -16.8400 H     3982  TIP3971     0.2052
  12109 H2          1.3950   -9.2100  -18.1250 H     3982  TIP3971     0.2052
  12110 OH2       -17.3610   33.6050    6.9100 O.3   3983  TIP3972    -0.4105
  12111 H1        -17.4090   33.9430    7.8040 H     3983  TIP3972     0.2052
  12112 H2        -16.5960   34.0370    6.5310 H     3983  TIP3972     0.2052
  12113 OH2        11.1610   -5.2680  -12.3220 O.3   3984  TIP3973    -0.4105
  12114 H1         10.2270   -5.4750  -12.3500 H     3984  TIP3973     0.2052
  12115 H2         11.1940   -4.3430  -12.0750 H     3984  TIP3973     0.2052
  12116 OH2       -16.9790   -1.0890    0.9170 O.3   3985  TIP3974    -0.4105
  12117 H1        -16.3540   -1.4640    0.2970 H     3985  TIP3974     0.2052
  12118 H2        -17.4150   -0.3920    0.4260 H     3985  TIP3974     0.2052
  12119 OH2        25.5550   -9.2450   -2.2090 O.3   3986  TIP3975    -0.4105
  12120 H1         24.7150   -9.5820   -2.5180 H     3986  TIP3975     0.2052
  12121 H2         26.2090   -9.7630   -2.6790 H     3986  TIP3975     0.2052
  12122 OH2         5.8410   19.1430  -30.8450 O.3   3987  TIP3976    -0.4105
  12123 H1          5.4730   19.0500  -29.9670 H     3987  TIP3976     0.2052
  12124 H2          6.1400   18.2630  -31.0750 H     3987  TIP3976     0.2052
  12125 OH2        -6.3330    6.6920  -31.3820 O.3   3988  TIP3977    -0.4105
  12126 H1         -5.7210    7.3600  -31.0750 H     3988  TIP3977     0.2052
  12127 H2         -7.0330    6.6870  -30.7290 H     3988  TIP3977     0.2052
  12128 OH2         2.6450    1.3580   -6.4580 O.3   3989  TIP3978    -0.4105
  12129 H1          3.1410    1.0880   -7.2310 H     3989  TIP3978     0.2052
  12130 H2          1.7440    1.4470   -6.7700 H     3989  TIP3978     0.2052
  12131 OH2        12.6870    9.8700  -11.1130 O.3   3990  TIP3979    -0.4105
  12132 H1         12.3400    9.2860  -11.7870 H     3990  TIP3979     0.2052
  12133 H2         12.5010   10.7510  -11.4390 H     3990  TIP3979     0.2052
  12134 OH2       -23.6370   15.3140    3.4630 O.3   3991  TIP3980    -0.4105
  12135 H1        -22.9560   15.6490    2.8800 H     3991  TIP3980     0.2052
  12136 H2        -24.4390   15.3550    2.9430 H     3991  TIP3980     0.2052
  12137 OH2        27.1740   14.4250   -6.2410 O.3   3992  TIP3981    -0.4105
  12138 H1         27.8020   14.2720   -5.5350 H     3992  TIP3981     0.2052
  12139 H2         27.6870   14.8430   -6.9330 H     3992  TIP3981     0.2052
  12140 OH2       -10.0370  -15.6170  -24.5980 O.3   3993  TIP3982    -0.4105
  12141 H1        -10.0460  -16.4170  -24.0720 H     3993  TIP3982     0.2052
  12142 H2        -10.9460  -15.3170  -24.5960 H     3993  TIP3982     0.2052
  12143 OH2         5.7050   14.5510   -1.2430 O.3   3994  TIP3983    -0.4105
  12144 H1          5.2580   13.7320   -1.4570 H     3994  TIP3983     0.2052
  12145 H2          6.2130   14.7590   -2.0270 H     3994  TIP3983     0.2052
  12146 OH2         6.7090  -10.8110  -21.0790 O.3   3995  TIP3984    -0.4105
  12147 H1          6.9550  -11.4610  -21.7380 H     3995  TIP3984     0.2052
  12148 H2          7.4660  -10.7650  -20.4950 H     3995  TIP3984     0.2052
  12149 OH2       -14.5690   -6.3910   -8.5970 O.3   3996  TIP3985    -0.4105
  12150 H1        -14.7970   -7.1520   -9.1310 H     3996  TIP3985     0.2052
  12151 H2        -15.0990   -6.4860   -7.8050 H     3996  TIP3985     0.2052
  12152 OH2       -11.6510  -14.7910   -7.8480 O.3   3997  TIP3986    -0.4105
  12153 H1        -11.6670  -14.8630   -8.8020 H     3997  TIP3986     0.2052
  12154 H2        -12.0020  -13.9190   -7.6670 H     3997  TIP3986     0.2052
  12155 OH2         0.5580  -11.3270  -15.7470 O.3   3998  TIP3987    -0.4105
  12156 H1          0.7680  -10.5130  -16.2040 H     3998  TIP3987     0.2052
  12157 H2          1.3820  -11.8130  -15.7300 H     3998  TIP3987     0.2052
  12158 OH2       -21.7330   11.8240    9.0200 O.3   3999  TIP3988    -0.4105
  12159 H1        -21.8020   11.0520    8.4580 H     3999  TIP3988     0.2052
  12160 H2        -21.6030   11.4700    9.9000 H     3999  TIP3988     0.2052
  12161 OH2         6.8310   14.9330  -12.5960 O.3   4000  TIP3989    -0.4105
  12162 H1          7.5480   15.5660  -12.6390 H     4000  TIP3989     0.2052
  12163 H2          6.3170   15.2040  -11.8350 H     4000  TIP3989     0.2052
  12164 OH2       -23.9080   20.3540   -1.2200 O.3   4001  TIP3990    -0.4105
  12165 H1        -24.3580   20.6790   -0.4410 H     4001  TIP3990     0.2052
  12166 H2        -23.9080   21.0970   -1.8240 H     4001  TIP3990     0.2052
  12167 OH2        10.6900  -23.4980  -12.5270 O.3   4002  TIP3991    -0.4105
  12168 H1          9.8960  -24.0330  -12.5580 H     4002  TIP3991     0.2052
  12169 H2         11.1820  -23.8430  -11.7830 H     4002  TIP3991     0.2052
  12170 OH2       -10.5050    4.9370   24.3310 O.3   4003  TIP3992    -0.4105
  12171 H1         -9.5600    5.0380   24.2180 H     4003  TIP3992     0.2052
  12172 H2        -10.7480    5.6260   24.9510 H     4003  TIP3992     0.2052
  12173 OH2        -5.7050   14.5360  -13.1210 O.3   4004  TIP3993    -0.4105
  12174 H1         -6.6440   14.3570  -13.1550 H     4004  TIP3993     0.2052
  12175 H2         -5.5830   15.2870  -13.7020 H     4004  TIP3993     0.2052
  12176 OH2        10.3590   -7.5830   17.4050 O.3   4005  TIP3994    -0.4105
  12177 H1          9.7220   -8.0590   17.9390 H     4005  TIP3994     0.2052
  12178 H2          9.8470   -7.2350   16.6750 H     4005  TIP3994     0.2052
  12179 OH2       -15.7950  -20.1100  -11.1710 O.3   4006  TIP3995    -0.4105
  12180 H1        -16.1280  -20.7180  -10.5110 H     4006  TIP3995     0.2052
  12181 H2        -16.2540  -20.3540  -11.9750 H     4006  TIP3995     0.2052
  12182 OH2         5.8390    7.4690    8.9130 O.3   4007  TIP3996    -0.4105
  12183 H1          5.6630    7.1830    9.8100 H     4007  TIP3996     0.2052
  12184 H2          6.6990    7.8860    8.9590 H     4007  TIP3996     0.2052
  12185 OH2        15.9500   12.1760    8.2840 O.3   4008  TIP3997    -0.4105
  12186 H1         15.4090   12.8320    8.7240 H     4008  TIP3997     0.2052
  12187 H2         15.7240   12.2610    7.3580 H     4008  TIP3997     0.2052
  12188 OH2        -4.3930   12.2460   12.2830 O.3   4009  TIP3998    -0.4105
  12189 H1         -3.8600   11.8100   11.6180 H     4009  TIP3998     0.2052
  12190 H2         -3.7990   12.3700   13.0230 H     4009  TIP3998     0.2052
  12191 OH2       -16.7080   29.5110  -10.7490 O.3   4010  TIP3999    -0.4105
  12192 H1        -16.8910   29.1860   -9.8680 H     4010  TIP3999     0.2052
  12193 H2        -15.7780   29.7390  -10.7330 H     4010  TIP3999     0.2052
  12194 OH2        -1.5060   14.0580  -26.8030 O.3   4011  TIP4000    -0.4105
  12195 H1         -1.1910   13.7330  -25.9590 H     4011  TIP4000     0.2052
  12196 H2         -0.7190   14.3750  -27.2460 H     4011  TIP4000     0.2052
  12197 OH2       -14.6800   -0.3810   23.8910 O.3   4012  TIP4001    -0.4105
  12198 H1        -15.1570   -0.3400   24.7200 H     4012  TIP4001     0.2052
  12199 H2        -13.9350   -0.9540   24.0710 H     4012  TIP4001     0.2052
  12200 OH2         3.5020  -20.3100  -10.9330 O.3   4013  TIP4002    -0.4105
  12201 H1          2.8980  -20.5230  -11.6440 H     4013  TIP4002     0.2052
  12202 H2          3.4210  -19.3630  -10.8240 H     4013  TIP4002     0.2052
  12203 OH2        -3.2670    1.4490  -11.9490 O.3   4014  TIP4003    -0.4105
  12204 H1         -3.4220    0.7530  -12.5870 H     4014  TIP4003     0.2052
  12205 H2         -2.4910    1.9050  -12.2730 H     4014  TIP4003     0.2052
  12206 OH2        22.1290   -1.7610   13.1510 O.3   4015  TIP4004    -0.4105
  12207 H1         21.8440   -1.1640   13.8420 H     4015  TIP4004     0.2052
  12208 H2         22.6760   -2.4050   13.6000 H     4015  TIP4004     0.2052
  12209 OH2       -20.3130   28.0940   -5.4260 O.3   4016  TIP4005    -0.4105
  12210 H1        -20.3370   27.4120   -4.7550 H     4016  TIP4005     0.2052
  12211 H2        -21.1510   28.5490   -5.3360 H     4016  TIP4005     0.2052
  12212 OH2        -3.1210  -12.4510   22.2750 O.3   4017  TIP4006    -0.4105
  12213 H1         -3.2920  -13.2150   21.7240 H     4017  TIP4006     0.2052
  12214 H2         -2.4280  -12.7350   22.8710 H     4017  TIP4006     0.2052
  12215 OH2         0.4550   -9.7390   16.3630 O.3   4018  TIP4007    -0.4105
  12216 H1          0.2110   -8.8480   16.6140 H     4018  TIP4007     0.2052
  12217 H2          0.7970  -10.1300   17.1670 H     4018  TIP4007     0.2052
  12218 OH2        31.7980   -2.9710   -7.1890 O.3   4019  TIP4008    -0.4105
  12219 H1         31.7870   -3.7660   -7.7220 H     4019  TIP4008     0.2052
  12220 H2         30.9980   -3.0200   -6.6660 H     4019  TIP4008     0.2052
  12221 OH2         8.6140   16.0350   31.7960 O.3   4020  TIP4009    -0.4105
  12222 H1          8.0230   15.8640   31.0630 H     4020  TIP4009     0.2052
  12223 H2          8.0380   16.3070   32.5100 H     4020  TIP4009     0.2052
  12224 OH2         2.7790  -15.7460  -22.2480 O.3   4021  TIP4010    -0.4105
  12225 H1          3.4340  -15.2350  -21.7720 H     4021  TIP4010     0.2052
  12226 H2          3.0790  -15.7320  -23.1570 H     4021  TIP4010     0.2052
  12227 OH2       -14.0060   23.2510    7.8940 O.3   4022  TIP4011    -0.4105
  12228 H1        -14.6570   23.7130    7.3670 H     4022  TIP4011     0.2052
  12229 H2        -13.8010   23.8550    8.6070 H     4022  TIP4011     0.2052
  12230 OH2        22.8320   10.5960  -18.8370 O.3   4023  TIP4012    -0.4105
  12231 H1         23.0810   10.3670  -19.7330 H     4023  TIP4012     0.2052
  12232 H2         23.1270    9.8540  -18.3090 H     4023  TIP4012     0.2052
  12233 OH2        -9.2960    0.7170   23.6990 O.3   4024  TIP4013    -0.4105
  12234 H1         -9.1590    1.3680   23.0110 H     4024  TIP4013     0.2052
  12235 H2         -9.9200    1.1280   24.2980 H     4024  TIP4013     0.2052
  12236 OH2         3.4400   12.4800    1.8980 O.3   4025  TIP4014    -0.4105
  12237 H1          2.7310   12.1190    1.3660 H     4025  TIP4014     0.2052
  12238 H2          2.9960   12.9290    2.6180 H     4025  TIP4014     0.2052
  12239 OH2         9.9770   18.0220    5.5230 O.3   4026  TIP4015    -0.4105
  12240 H1         10.6340   17.5540    5.0080 H     4026  TIP4015     0.2052
  12241 H2         10.2020   18.9460    5.4150 H     4026  TIP4015     0.2052
  12242 OH2        11.9660   11.4220   -2.1580 O.3   4027  TIP4016    -0.4105
  12243 H1         11.5270   11.6470   -1.3370 H     4027  TIP4016     0.2052
  12244 H2         12.7370   10.9240   -1.8890 H     4027  TIP4016     0.2052
  12245 OH2        -1.9910   20.1380  -16.5190 O.3   4028  TIP4017    -0.4105
  12246 H1         -2.0560   19.4990  -15.8100 H     4028  TIP4017     0.2052
  12247 H2         -2.8290   20.6000  -16.5030 H     4028  TIP4017     0.2052
  12248 OH2         9.9700   13.8620   -2.9610 O.3   4029  TIP4018    -0.4105
  12249 H1          9.9140   12.9080   -3.0240 H     4029  TIP4018     0.2052
  12250 H2         10.8990   14.0380   -2.8100 H     4029  TIP4018     0.2052
  12251 OH2        -4.2730   14.0450   -5.4790 O.3   4030  TIP4019    -0.4105
  12252 H1         -4.6440   13.6640   -4.6820 H     4030  TIP4019     0.2052
  12253 H2         -5.0050   14.5070   -5.8870 H     4030  TIP4019     0.2052
  12254 OH2         4.6150  -28.5060    7.5370 O.3   4031  TIP4020    -0.4105
  12255 H1          4.0210  -29.0080    6.9790 H     4031  TIP4020     0.2052
  12256 H2          5.4310  -28.4610    7.0380 H     4031  TIP4020     0.2052
  12257 OH2       -13.9040   25.8130  -10.7980 O.3   4032  TIP4021    -0.4105
  12258 H1        -13.8750   25.5150  -11.7070 H     4032  TIP4021     0.2052
  12259 H2        -14.6000   25.2920  -10.3970 H     4032  TIP4021     0.2052
  12260 OH2        12.7000    4.7300   -0.8350 O.3   4033  TIP4022    -0.4105
  12261 H1         12.1530    3.9450   -0.8780 H     4033  TIP4022     0.2052
  12262 H2         12.0760    5.4570   -0.8320 H     4033  TIP4022     0.2052
  12263 OH2        12.2130  -23.0250    0.9050 O.3   4034  TIP4023    -0.4105
  12264 H1         11.9400  -22.1890    1.2830 H     4034  TIP4023     0.2052
  12265 H2         11.9330  -22.9780   -0.0090 H     4034  TIP4023     0.2052
  12266 OH2        -8.9390    4.6940    4.3100 O.3   4035  TIP4024    -0.4105
  12267 H1         -8.2640    4.4440    3.6790 H     4035  TIP4024     0.2052
  12268 H2         -9.7610    4.6220    3.8230 H     4035  TIP4024     0.2052
  12269 OH2        12.3000    9.6100   30.2930 O.3   4036  TIP4025    -0.4105
  12270 H1         12.9940   10.2130   30.0260 H     4036  TIP4025     0.2052
  12271 H2         11.7090   10.1450   30.8230 H     4036  TIP4025     0.2052
  12272 OH2        -0.6720   18.6800  -35.1730 O.3   4037  TIP4026    -0.4105
  12273 H1         -0.5860   19.3940  -34.5410 H     4037  TIP4026     0.2052
  12274 H2         -1.6160   18.5340  -35.2430 H     4037  TIP4026     0.2052
  12275 OH2       -17.9720   14.2340    1.2500 O.3   4038  TIP4027    -0.4105
  12276 H1        -18.0500   15.1360    1.5630 H     4038  TIP4027     0.2052
  12277 H2        -18.5460   13.7300    1.8270 H     4038  TIP4027     0.2052
  12278 OH2        29.5660    3.4030    4.4880 O.3   4039  TIP4028    -0.4105
  12279 H1         29.6240    3.6680    3.5700 H     4039  TIP4028     0.2052
  12280 H2         30.4570    3.1430    4.7200 H     4039  TIP4028     0.2052
  12281 OH2       -12.9550  -23.5880  -25.5950 O.3   4040  TIP4029    -0.4105
  12282 H1        -13.6890  -23.5540  -26.2080 H     4040  TIP4029     0.2052
  12283 H2        -13.3200  -23.9880  -24.8060 H     4040  TIP4029     0.2052
  12284 OH2        17.1490   19.2660   -5.7600 O.3   4041  TIP4030    -0.4105
  12285 H1         17.0290   19.5570   -6.6640 H     4041  TIP4030     0.2052
  12286 H2         16.2650   19.2420   -5.3950 H     4041  TIP4030     0.2052
  12287 OH2        -2.8070   13.4420   24.9160 O.3   4042  TIP4031    -0.4105
  12288 H1         -3.1800   14.0660   24.2940 H     4042  TIP4031     0.2052
  12289 H2         -3.0110   12.5830   24.5470 H     4042  TIP4031     0.2052
  12290 OH2         2.3080  -10.1780   14.5550 O.3   4043  TIP4032    -0.4105
  12291 H1          2.4310   -9.2610   14.3130 H     4043  TIP4032     0.2052
  12292 H2          1.4950  -10.1860   15.0610 H     4043  TIP4032     0.2052
  12293 OH2       -13.1150   -0.4810    8.2300 O.3   4044  TIP4033    -0.4105
  12294 H1        -13.2130   -1.2990    7.7440 H     4044  TIP4033     0.2052
  12295 H2        -12.9470   -0.7550    9.1320 H     4044  TIP4033     0.2052
  12296 OH2        -5.1390   16.8310   18.5910 O.3   4045  TIP4034    -0.4105
  12297 H1         -6.0590   17.0870   18.6530 H     4045  TIP4034     0.2052
  12298 H2         -5.1050   16.2400   17.8390 H     4045  TIP4034     0.2052
  12299 OH2        -8.7210   -7.5580   20.7910 O.3   4046  TIP4035    -0.4105
  12300 H1         -9.3340   -7.9830   20.1910 H     4046  TIP4035     0.2052
  12301 H2         -8.2700   -6.9070   20.2530 H     4046  TIP4035     0.2052
  12302 OH2        20.7320  -15.4430    2.9540 O.3   4047  TIP4036    -0.4105
  12303 H1         21.2400  -15.8780    2.2700 H     4047  TIP4036     0.2052
  12304 H2         20.3350  -16.1590    3.4510 H     4047  TIP4036     0.2052
  12305 OH2        -3.3060   -7.2210    5.5390 O.3   4048  TIP4037    -0.4105
  12306 H1         -2.5990   -7.2960    6.1800 H     4048  TIP4037     0.2052
  12307 H2         -2.9920   -6.5700    4.9110 H     4048  TIP4037     0.2052
  12308 OH2       -25.1360   -5.7540   -7.9230 O.3   4049  TIP4038    -0.4105
  12309 H1        -24.3360   -5.4650   -8.3620 H     4049  TIP4038     0.2052
  12310 H2        -25.8450   -5.3640   -8.4330 H     4049  TIP4038     0.2052
  12311 OH2        15.4080  -25.5610   -6.7010 O.3   4050  TIP4039    -0.4105
  12312 H1         14.9520  -25.1480   -7.4340 H     4050  TIP4039     0.2052
  12313 H2         14.8070  -25.4660   -5.9610 H     4050  TIP4039     0.2052
  12314 OH2         5.8090   21.6150    6.7930 O.3   4051  TIP4040    -0.4105
  12315 H1          6.0080   22.5470    6.7030 H     4051  TIP4040     0.2052
  12316 H2          6.5160   21.1730    6.3230 H     4051  TIP4040     0.2052
  12317 OH2        -4.0910   29.0980   14.4360 O.3   4052  TIP4041    -0.4105
  12318 H1         -3.8250   30.0020   14.2690 H     4052  TIP4041     0.2052
  12319 H2         -3.7250   28.6010   13.7040 H     4052  TIP4041     0.2052
  12320 OH2        13.8370  -13.1730   13.7340 O.3   4053  TIP4042    -0.4105
  12321 H1         12.9840  -13.5160   13.4680 H     4053  TIP4042     0.2052
  12322 H2         13.8440  -13.2580   14.6870 H     4053  TIP4042     0.2052
  12323 OH2       -25.3620    5.8600   15.2610 O.3   4054  TIP4043    -0.4105
  12324 H1        -26.1800    5.4260   15.5030 H     4054  TIP4043     0.2052
  12325 H2        -25.0720    5.4030   14.4720 H     4054  TIP4043     0.2052
  12326 OH2       -11.3330    7.2470  -24.1750 O.3   4055  TIP4044    -0.4105
  12327 H1        -11.6680    7.9170  -24.7700 H     4055  TIP4044     0.2052
  12328 H2        -12.0710    6.6530  -24.0420 H     4055  TIP4044     0.2052
  12329 OH2       -15.7030   15.0640   11.3480 O.3   4056  TIP4045    -0.4105
  12330 H1        -15.2780   14.8980   10.5070 H     4056  TIP4045     0.2052
  12331 H2        -15.0650   14.7720   12.0000 H     4056  TIP4045     0.2052
  12332 OH2       -15.5330   -1.4790  -20.4340 O.3   4057  TIP4046    -0.4105
  12333 H1        -15.5280   -1.9030  -21.2920 H     4057  TIP4046     0.2052
  12334 H2        -14.9280   -2.0000  -19.9060 H     4057  TIP4046     0.2052
  12335 OH2         7.1800   11.6680   32.6220 O.3   4058  TIP4047    -0.4105
  12336 H1          7.5440   12.5430   32.7550 H     4058  TIP4047     0.2052
  12337 H2          6.2490   11.7610   32.8280 H     4058  TIP4047     0.2052
  12338 OH2        13.4730  -13.2230   -6.3090 O.3   4059  TIP4048    -0.4105
  12339 H1         13.1360  -12.3350   -6.4280 H     4059  TIP4048     0.2052
  12340 H2         14.3830  -13.1750   -6.6000 H     4059  TIP4048     0.2052
  12341 OH2         3.9360    2.4470  -24.6740 O.3   4060  TIP4049    -0.4105
  12342 H1          3.4780    3.0560  -24.0950 H     4060  TIP4049     0.2052
  12343 H2          3.2380    1.9560  -25.1070 H     4060  TIP4049     0.2052
  12344 OH2        12.3860   19.9390   21.1580 O.3   4061  TIP4050    -0.4105
  12345 H1         11.8810   19.1530   21.3650 H     4061  TIP4050     0.2052
  12346 H2         12.7340   19.7750   20.2810 H     4061  TIP4050     0.2052
  12347 OH2       -11.8120  -20.7010   11.2700 O.3   4062  TIP4051    -0.4105
  12348 H1        -10.9910  -20.9830   10.8660 H     4062  TIP4051     0.2052
  12349 H2        -12.3010  -20.2900   10.5570 H     4062  TIP4051     0.2052
  12350 OH2         8.0400   -9.7530   14.7160 O.3   4063  TIP4052    -0.4105
  12351 H1          8.9130   -9.4210   14.5090 H     4063  TIP4052     0.2052
  12352 H2          7.6080   -9.8400   13.8660 H     4063  TIP4052     0.2052
  12353 OH2        15.1360   -4.9110  -13.2530 O.3   4064  TIP4053    -0.4105
  12354 H1         14.5900   -5.4370  -13.8370 H     4064  TIP4053     0.2052
  12355 H2         14.5120   -4.4080  -12.7290 H     4064  TIP4053     0.2052
  12356 OH2       -16.1170    7.6680   12.6860 O.3   4065  TIP4054    -0.4105
  12357 H1        -15.8060    6.7930   12.4520 H     4065  TIP4054     0.2052
  12358 H2        -16.3530    8.0700   11.8500 H     4065  TIP4054     0.2052
  12359 OH2        19.4970    3.1080    7.9920 O.3   4066  TIP4055    -0.4105
  12360 H1         20.1540    2.8180    7.3580 H     4066  TIP4055     0.2052
  12361 H2         19.2270    3.9710    7.6780 H     4066  TIP4055     0.2052
  12362 OH2         7.2150   -0.6090  -25.6260 O.3   4067  TIP4056    -0.4105
  12363 H1          6.9870    0.2810  -25.3590 H     4067  TIP4056     0.2052
  12364 H2          7.5120   -1.0320  -24.8210 H     4067  TIP4056     0.2052
  12365 OH2       -31.1840   -8.1470   17.3720 O.3   4068  TIP4057    -0.4105
  12366 H1        -30.8280   -8.7840   17.9910 H     4068  TIP4057     0.2052
  12367 H2        -31.4910   -8.6740   16.6340 H     4068  TIP4057     0.2052
  12368 OH2         2.6440  -29.2800    1.7190 O.3   4069  TIP4058    -0.4105
  12369 H1          3.0910  -30.0830    1.9860 H     4069  TIP4058     0.2052
  12370 H2          3.2760  -28.5830    1.8950 H     4069  TIP4058     0.2052
  12371 OH2        -5.5850   28.5020   10.7850 O.3   4070  TIP4059    -0.4105
  12372 H1         -4.9700   28.3550   10.0670 H     4070  TIP4059     0.2052
  12373 H2         -5.7630   27.6270   11.1310 H     4070  TIP4059     0.2052
  12374 OH2        -4.1180  -21.5330   23.9910 O.3   4071  TIP4060    -0.4105
  12375 H1         -3.6710  -20.6900   23.9060 H     4071  TIP4060     0.2052
  12376 H2         -3.8250  -21.8760   24.8350 H     4071  TIP4060     0.2052
  12377 OH2       -10.6180  -17.4750   11.1830 O.3   4072  TIP4061    -0.4105
  12378 H1        -10.0680  -18.2220   10.9430 H     4072  TIP4061     0.2052
  12379 H2        -11.3720  -17.5350   10.5970 H     4072  TIP4061     0.2052
  12380 OH2        -9.1430   -4.0960    6.1460 O.3   4073  TIP4062    -0.4105
  12381 H1         -9.9560   -3.6020    6.0440 H     4073  TIP4062     0.2052
  12382 H2         -9.1260   -4.3420    7.0710 H     4073  TIP4062     0.2052
  12383 OH2       -14.5300  -11.9040   -6.3540 O.3   4074  TIP4063    -0.4105
  12384 H1        -15.1630  -11.2240   -6.5840 H     4074  TIP4063     0.2052
  12385 H2        -13.6930  -11.4430   -6.2950 H     4074  TIP4063     0.2052
  12386 OH2        -8.0820  -18.3730  -26.4770 O.3   4075  TIP4064    -0.4105
  12387 H1         -8.3180  -18.7500  -25.6290 H     4075  TIP4064     0.2052
  12388 H2         -8.7270  -17.6800  -26.6190 H     4075  TIP4064     0.2052
  12389 OH2       -14.1290    7.2300    2.7150 O.3   4076  TIP4065    -0.4105
  12390 H1        -13.6660    7.1730    1.8790 H     4076  TIP4065     0.2052
  12391 H2        -13.4420    7.1380    3.3760 H     4076  TIP4065     0.2052
  12392 OH2        -2.7560   -6.5020   -2.5410 O.3   4077  TIP4066    -0.4105
  12393 H1         -1.8100   -6.4000   -2.6500 H     4077  TIP4066     0.2052
  12394 H2         -3.1270   -5.7000   -2.9080 H     4077  TIP4066     0.2052
  12395 OH2       -14.5220  -20.7870  -22.3870 O.3   4078  TIP4067    -0.4105
  12396 H1        -15.2740  -20.2200  -22.5570 H     4078  TIP4067     0.2052
  12397 H2        -13.7650  -20.2740  -22.6700 H     4078  TIP4067     0.2052
  12398 OH2         4.2690    3.3290  -27.8690 O.3   4079  TIP4068    -0.4105
  12399 H1          3.6290    4.0410  -27.8540 H     4079  TIP4068     0.2052
  12400 H2          4.7580    3.4290  -27.0530 H     4079  TIP4068     0.2052
  12401 OH2        -5.3570  -17.4070   30.3410 O.3   4080  TIP4069    -0.4105
  12402 H1         -5.7180  -18.1530   29.8620 H     4080  TIP4069     0.2052
  12403 H2         -5.8260  -16.6490   29.9930 H     4080  TIP4069     0.2052
  12404 OH2       -17.2880  -17.2700   -3.3300 O.3   4081  TIP4070    -0.4105
  12405 H1        -16.6430  -16.7850   -2.8160 H     4081  TIP4070     0.2052
  12406 H2        -16.7920  -17.9890   -3.7210 H     4081  TIP4070     0.2052
  12407 OH2        18.1640   -1.7770  -12.7150 O.3   4082  TIP4071    -0.4105
  12408 H1         17.8080   -2.2870  -13.4420 H     4082  TIP4071     0.2052
  12409 H2         18.7420   -1.1370  -13.1310 H     4082  TIP4071     0.2052
  12410 OH2        -7.8280   16.5850   18.9600 O.3   4083  TIP4072    -0.4105
  12411 H1         -8.6110   17.1290   18.8690 H     4083  TIP4072     0.2052
  12412 H2         -7.9740   16.0880   19.7650 H     4083  TIP4072     0.2052
  12413 OH2        -6.3960   13.9360   -7.7540 O.3   4084  TIP4073    -0.4105
  12414 H1         -7.3180   14.0680   -7.9770 H     4084  TIP4073     0.2052
  12415 H2         -6.0640   14.8160   -7.5740 H     4084  TIP4073     0.2052
  12416 OH2       -14.3910    0.8140   -4.8370 O.3   4085  TIP4074    -0.4105
  12417 H1        -14.9860    0.1550   -4.4800 H     4085  TIP4074     0.2052
  12418 H2        -14.2100    1.3980   -4.1000 H     4085  TIP4074     0.2052
  12419 OH2        23.4940   11.6860  -15.7860 O.3   4086  TIP4075    -0.4105
  12420 H1         23.7390   10.8120  -16.0910 H     4086  TIP4075     0.2052
  12421 H2         22.8270   11.5280  -15.1170 H     4086  TIP4075     0.2052
  12422 OH2         4.5660  -16.0270  -17.0490 O.3   4087  TIP4076    -0.4105
  12423 H1          4.7230  -16.0890  -16.1070 H     4087  TIP4076     0.2052
  12424 H2          4.6650  -16.9240  -17.3680 H     4087  TIP4076     0.2052
  12425 OH2         8.6590  -29.4730   -2.9380 O.3   4088  TIP4077    -0.4105
  12426 H1          9.2490  -30.1110   -2.5370 H     4088  TIP4077     0.2052
  12427 H2          9.1800  -28.6730   -3.0060 H     4088  TIP4077     0.2052
  12428 OH2       -27.6860    5.7790    7.5690 O.3   4089  TIP4078    -0.4105
  12429 H1        -28.3370    6.2530    7.0500 H     4089  TIP4078     0.2052
  12430 H2        -28.0210    4.8840    7.6140 H     4089  TIP4078     0.2052
  12431 OH2       -24.3650  -11.0400   -4.1660 O.3   4090  TIP4079    -0.4105
  12432 H1        -24.6920  -11.7800   -3.6560 H     4090  TIP4079     0.2052
  12433 H2        -25.0260  -10.9050   -4.8450 H     4090  TIP4079     0.2052
  12434 OH2        -9.7230   -7.4940  -20.1600 O.3   4091  TIP4080    -0.4105
  12435 H1        -10.5670   -7.6780  -19.7470 H     4091  TIP4080     0.2052
  12436 H2         -9.8170   -7.8260  -21.0530 H     4091  TIP4080     0.2052
  12437 OH2       -21.7150  -11.3140   -3.6560 O.3   4092  TIP4081    -0.4105
  12438 H1        -21.6570  -11.7840   -2.8240 H     4092  TIP4081     0.2052
  12439 H2        -22.6550  -11.2070   -3.8060 H     4092  TIP4081     0.2052
  12440 OH2       -15.0800   -5.4740   19.1730 O.3   4093  TIP4082    -0.4105
  12441 H1        -15.8900   -5.2750   18.7030 H     4093  TIP4082     0.2052
  12442 H2        -14.4880   -5.8100   18.5010 H     4093  TIP4082     0.2052
  12443 OH2       -28.4200   12.5740    3.7730 O.3   4094  TIP4083    -0.4105
  12444 H1        -29.0260   13.3060    3.6600 H     4094  TIP4083     0.2052
  12445 H2        -28.9660   11.8600    4.1040 H     4094  TIP4083     0.2052
  12446 OH2       -38.2430   -5.7050   11.9620 O.3   4095  TIP4084    -0.4105
  12447 H1        -38.7920   -6.3120   11.4660 H     4095  TIP4084     0.2052
  12448 H2        -38.0640   -6.1600   12.7840 H     4095  TIP4084     0.2052
  12449 OH2        25.5020  -13.1240   -5.4130 O.3   4096  TIP4085    -0.4105
  12450 H1         25.8450  -12.2670   -5.1570 H     4096  TIP4085     0.2052
  12451 H2         24.7960  -13.2960   -4.7900 H     4096  TIP4085     0.2052
  12452 OH2         1.2650   -5.5700   19.2270 O.3   4097  TIP4086    -0.4105
  12453 H1          0.6900   -6.3050   19.4390 H     4097  TIP4086     0.2052
  12454 H2          0.6710   -4.8330   19.0840 H     4097  TIP4086     0.2052
  12455 OH2        -7.6520   21.5830   -2.7040 O.3   4098  TIP4087    -0.4105
  12456 H1         -8.3830   21.7300   -2.1040 H     4098  TIP4087     0.2052
  12457 H2         -8.0070   21.7880   -3.5690 H     4098  TIP4087     0.2052
  12458 OH2       -20.3410   12.4980    5.6660 O.3   4099  TIP4088    -0.4105
  12459 H1        -20.3750   13.3970    5.9940 H     4099  TIP4088     0.2052
  12460 H2        -20.8140   11.9850    6.3220 H     4099  TIP4088     0.2052
  12461 OH2        12.8860    6.2580    7.8690 O.3   4100  TIP4089    -0.4105
  12462 H1         12.2300    6.6000    8.4760 H     4100  TIP4089     0.2052
  12463 H2         13.7150    6.6190    8.1820 H     4100  TIP4089     0.2052
  12464 OH2         8.9770   11.5300  -28.4090 O.3   4101  TIP4090    -0.4105
  12465 H1          8.1010   11.1600  -28.5170 H     4101  TIP4090     0.2052
  12466 H2          9.4610   11.2320  -29.1790 H     4101  TIP4090     0.2052
  12467 OH2        -5.2380    5.2490   -5.0170 O.3   4102  TIP4091    -0.4105
  12468 H1         -4.6580    4.8270   -5.6500 H     4102  TIP4091     0.2052
  12469 H2         -4.6470    5.6860   -4.4030 H     4102  TIP4091     0.2052
  12470 OH2        -1.6000   14.8010   -1.9630 O.3   4103  TIP4092    -0.4105
  12471 H1         -2.4500   15.2430   -1.9490 H     4103  TIP4092     0.2052
  12472 H2         -1.0280   15.3980   -2.4460 H     4103  TIP4092     0.2052
  12473 OH2        10.4170  -13.9080    4.6790 O.3   4104  TIP4093    -0.4105
  12474 H1          9.7490  -14.2040    4.0600 H     4104  TIP4093     0.2052
  12475 H2          9.9640  -13.8690    5.5210 H     4104  TIP4093     0.2052
  12476 OH2        -9.5440   15.0760   20.5880 O.3   4105  TIP4094    -0.4105
  12477 H1        -10.4520   15.3760   20.5340 H     4105  TIP4094     0.2052
  12478 H2         -9.5660   14.3600   21.2240 H     4105  TIP4094     0.2052
  12479 OH2       -15.1630  -16.9520    6.5510 O.3   4106  TIP4095    -0.4105
  12480 H1        -15.4100  -17.3620    5.7230 H     4106  TIP4095     0.2052
  12481 H2        -15.9950  -16.7700    6.9870 H     4106  TIP4095     0.2052
  12482 OH2        11.5820   -8.6230   10.4460 O.3   4107  TIP4096    -0.4105
  12483 H1         11.5420   -8.1760   11.2920 H     4107  TIP4096     0.2052
  12484 H2         11.7250   -7.9220    9.8110 H     4107  TIP4096     0.2052
  12485 OH2        10.8790    3.3960   29.4950 O.3   4108  TIP4097    -0.4105
  12486 H1         10.4140    3.5140   28.6660 H     4108  TIP4097     0.2052
  12487 H2         10.6170    2.5250   29.7940 H     4108  TIP4097     0.2052
  12488 OH2        -8.8390   18.3830    6.8470 O.3   4109  TIP4098    -0.4105
  12489 H1         -9.0590   19.1990    7.2970 H     4109  TIP4098     0.2052
  12490 H2         -8.6270   18.6520    5.9530 H     4109  TIP4098     0.2052
  12491 OH2        18.5250   -9.9500   12.9980 O.3   4110  TIP4099    -0.4105
  12492 H1         17.7720   -9.9290   13.5880 H     4110  TIP4099     0.2052
  12493 H2         18.7520   -9.0290   12.8660 H     4110  TIP4099     0.2052
  12494 OH2       -31.1680    1.3080    0.5590 O.3   4111  TIP4100    -0.4105
  12495 H1        -30.7590    1.4600   -0.2920 H     4111  TIP4100     0.2052
  12496 H2        -31.1130    0.3600    0.6870 H     4111  TIP4100     0.2052
  12497 OH2       -26.4780  -16.9560  -10.2550 O.3   4112  TIP4101    -0.4105
  12498 H1        -26.5710  -17.3420   -9.3840 H     4112  TIP4101     0.2052
  12499 H2        -26.1700  -16.0640  -10.0910 H     4112  TIP4101     0.2052
  12500 OH2       -18.5690  -23.3030  -11.8450 O.3   4113  TIP4102    -0.4105
  12501 H1        -18.5050  -24.2520  -11.9510 H     4113  TIP4102     0.2052
  12502 H2        -19.4600  -23.0910  -12.1230 H     4113  TIP4102     0.2052
  12503 OH2       -19.7670    4.8010    9.6740 O.3   4114  TIP4103    -0.4105
  12504 H1        -19.3790    5.4290    9.0650 H     4114  TIP4103     0.2052
  12505 H2        -19.3110    3.9790    9.4950 H     4114  TIP4103     0.2052
  12506 OH2         4.2740   13.2920   23.8490 O.3   4115  TIP4104    -0.4105
  12507 H1          4.3710   13.9330   23.1440 H     4115  TIP4104     0.2052
  12508 H2          3.3370   13.2860   24.0400 H     4115  TIP4104     0.2052
  12509 OH2        16.7100    2.6800  -18.7050 O.3   4116  TIP4105    -0.4105
  12510 H1         16.5290    1.9000  -18.1810 H     4116  TIP4105     0.2052
  12511 H2         15.8660    2.9110  -19.0920 H     4116  TIP4105     0.2052
  12512 OH2        -0.9150   -5.1500  -17.3110 O.3   4117  TIP4106    -0.4105
  12513 H1         -0.5060   -4.4360  -17.7980 H     4117  TIP4106     0.2052
  12514 H2         -1.0350   -4.8010  -16.4280 H     4117  TIP4106     0.2052
  12515 OH2         1.7430   16.7080   -5.9870 O.3   4118  TIP4107    -0.4105
  12516 H1          2.5780   16.7420   -5.5220 H     4118  TIP4107     0.2052
  12517 H2          1.0980   16.5080   -5.3090 H     4118  TIP4107     0.2052
  12518 OH2        -4.3820   -2.2610   16.8730 O.3   4119  TIP4108    -0.4105
  12519 H1         -3.7640   -2.6950   16.2840 H     4119  TIP4108     0.2052
  12520 H2         -3.8920   -1.5220   17.2330 H     4119  TIP4108     0.2052
  12521 OH2         6.8560   22.7400   17.9230 O.3   4120  TIP4109    -0.4105
  12522 H1          7.3120   22.4410   17.1370 H     4120  TIP4109     0.2052
  12523 H2          6.0150   23.0670   17.6030 H     4120  TIP4109     0.2052
  12524 OH2        16.9980   20.6430    9.8590 O.3   4121  TIP4110    -0.4105
  12525 H1         17.1070   19.9270   10.4840 H     4121  TIP4110     0.2052
  12526 H2         17.4620   20.3490    9.0740 H     4121  TIP4110     0.2052
  12527 OH2        16.2080    0.6420   19.3500 O.3   4122  TIP4111    -0.4105
  12528 H1         15.5930    0.3660   20.0290 H     4122  TIP4111     0.2052
  12529 H2         16.5550    1.4780   19.6650 H     4122  TIP4111     0.2052
  12530 OH2       -16.6010    6.4290  -16.7310 O.3   4123  TIP4112    -0.4105
  12531 H1        -16.4260    6.8230  -15.8760 H     4123  TIP4112     0.2052
  12532 H2        -17.4570    6.0130  -16.6320 H     4123  TIP4112     0.2052
  12533 OH2        18.2470   12.0790   15.1920 O.3   4124  TIP4113    -0.4105
  12534 H1         18.5020   11.2540   14.7800 H     4124  TIP4113     0.2052
  12535 H2         17.5850   11.8310   15.8380 H     4124  TIP4113     0.2052
  12536 OH2        10.5720   -5.9280    1.1360 O.3   4125  TIP4114    -0.4105
  12537 H1         11.2830   -5.4440    0.7150 H     4125  TIP4114     0.2052
  12538 H2          9.9200   -6.0470    0.4460 H     4125  TIP4114     0.2052
  12539 OH2         2.9110   18.4310    6.2570 O.3   4126  TIP4115    -0.4105
  12540 H1          2.7700   17.5610    5.8840 H     4126  TIP4115     0.2052
  12541 H2          3.0800   18.9920    5.5000 H     4126  TIP4115     0.2052
  12542 OH2        26.8850  -12.0040   -1.7860 O.3   4127  TIP4116    -0.4105
  12543 H1         26.7920  -12.9010   -1.4640 H     4127  TIP4116     0.2052
  12544 H2         26.5570  -12.0360   -2.6840 H     4127  TIP4116     0.2052
  12545 OH2        -4.7560    4.4110   24.9690 O.3   4128  TIP4117    -0.4105
  12546 H1         -4.8030    3.7880   24.2440 H     4128  TIP4117     0.2052
  12547 H2         -4.0980    4.0430   25.5590 H     4128  TIP4117     0.2052
  12548 OH2        31.7770   15.4590    3.5920 O.3   4129  TIP4118    -0.4105
  12549 H1         31.3870   15.9100    4.3410 H     4129  TIP4118     0.2052
  12550 H2         31.0730   15.4170    2.9450 H     4129  TIP4118     0.2052
  12551 OH2         8.9240  -14.7700    2.6560 O.3   4130  TIP4119    -0.4105
  12552 H1          9.7800  -14.6200    2.2550 H     4130  TIP4119     0.2052
  12553 H2          8.4880  -15.3860    2.0670 H     4130  TIP4119     0.2052
  12554 OH2        33.3220    8.9710    2.9060 O.3   4131  TIP4120    -0.4105
  12555 H1         34.0300    8.6590    2.3430 H     4131  TIP4120     0.2052
  12556 H2         33.5260    8.6130    3.7700 H     4131  TIP4120     0.2052
  12557 OH2       -13.4980    2.1580   -2.0170 O.3   4132  TIP4121    -0.4105
  12558 H1        -13.3810    2.7890   -2.7280 H     4132  TIP4121     0.2052
  12559 H2        -12.6120    1.8580   -1.8140 H     4132  TIP4121     0.2052
  12560 OH2       -29.1400    0.5740    3.3120 O.3   4133  TIP4122    -0.4105
  12561 H1        -29.0460    1.5010    3.0940 H     4133  TIP4122     0.2052
  12562 H2        -30.0750    0.4600    3.4800 H     4133  TIP4122     0.2052
  12563 OH2        28.9960   13.6300   -1.4610 O.3   4134  TIP4123    -0.4105
  12564 H1         28.3650   14.3480   -1.4110 H     4134  TIP4123     0.2052
  12565 H2         28.7810   13.0700   -0.7150 H     4134  TIP4123     0.2052
  12566 OH2         3.6050   10.0410   10.0980 O.3   4135  TIP4124    -0.4105
  12567 H1          2.8670    9.8330   10.6700 H     4135  TIP4124     0.2052
  12568 H2          3.7160    9.2600    9.5560 H     4135  TIP4124     0.2052
  12569 OH2         7.3600  -16.5150  -12.2730 O.3   4136  TIP4125    -0.4105
  12570 H1          8.3090  -16.6390  -12.2960 H     4136  TIP4125     0.2052
  12571 H2          7.1800  -16.2100  -11.3830 H     4136  TIP4125     0.2052
  12572 OH2        16.3290  -16.9600  -11.7960 O.3   4137  TIP4126    -0.4105
  12573 H1         16.7430  -16.1100  -11.6460 H     4137  TIP4126     0.2052
  12574 H2         16.9100  -17.5890  -11.3690 H     4137  TIP4126     0.2052
  12575 OH2       -14.7410   22.9320   -7.7040 O.3   4138  TIP4127    -0.4105
  12576 H1        -14.9880   23.3440   -8.5320 H     4138  TIP4127     0.2052
  12577 H2        -14.9990   23.5660   -7.0350 H     4138  TIP4127     0.2052
  12578 OH2        -0.3910  -10.8820   33.4820 O.3   4139  TIP4128    -0.4105
  12579 H1         -0.3000  -11.8280   33.5920 H     4139  TIP4128     0.2052
  12580 H2          0.4870  -10.5360   33.6440 H     4139  TIP4128     0.2052
  12581 OH2        18.0920   18.1950    3.9600 O.3   4140  TIP4129    -0.4105
  12582 H1         17.8720   18.2590    3.0310 H     4140  TIP4129     0.2052
  12583 H2         17.6640   18.9520    4.3600 H     4140  TIP4129     0.2052
  12584 OH2        19.7820   -0.9750    5.0690 O.3   4141  TIP4130    -0.4105
  12585 H1         19.6810   -0.2400    4.4640 H     4141  TIP4130     0.2052
  12586 H2         19.0410   -1.5480    4.8770 H     4141  TIP4130     0.2052
  12587 OH2        -8.3320   23.1740   16.4000 O.3   4142  TIP4131    -0.4105
  12588 H1         -7.4090   23.3460   16.2160 H     4142  TIP4131     0.2052
  12589 H2         -8.7950   23.9270   16.0310 H     4142  TIP4131     0.2052
  12590 OH2         6.9680    8.9190   28.9730 O.3   4143  TIP4132    -0.4105
  12591 H1          7.3820    9.7150   29.3040 H     4143  TIP4132     0.2052
  12592 H2          7.2560    8.8590   28.0620 H     4143  TIP4132     0.2052
  12593 OH2         0.4950   -4.3330   28.8160 O.3   4144  TIP4133    -0.4105
  12594 H1          1.0280   -4.8210   28.1880 H     4144  TIP4133     0.2052
  12595 H2          0.8820   -3.4570   28.8300 H     4144  TIP4133     0.2052
  12596 OH2         3.2880   -2.0780   -4.8640 O.3   4145  TIP4134    -0.4105
  12597 H1          2.9680   -1.2080   -4.6240 H     4145  TIP4134     0.2052
  12598 H2          4.2190   -1.9490   -5.0470 H     4145  TIP4134     0.2052
  12599 OH2         3.9030   10.9110  -17.3240 O.3   4146  TIP4135    -0.4105
  12600 H1          4.4260   10.1120  -17.3990 H     4146  TIP4135     0.2052
  12601 H2          3.9690   11.1550  -16.4010 H     4146  TIP4135     0.2052
  12602 OH2        21.2710    3.7110   -9.0620 O.3   4147  TIP4136    -0.4105
  12603 H1         20.9440    3.6880   -9.9610 H     4147  TIP4136     0.2052
  12604 H2         20.5600    4.1080   -8.5580 H     4147  TIP4136     0.2052
  12605 OH2       -20.7140   19.5320   -7.5870 O.3   4148  TIP4137    -0.4105
  12606 H1        -20.4810   19.6280   -8.5110 H     4148  TIP4137     0.2052
  12607 H2        -20.1560   20.1630   -7.1320 H     4148  TIP4137     0.2052
  12608 OH2         2.8100   16.0740  -24.2540 O.3   4149  TIP4138    -0.4105
  12609 H1          2.4910   16.6670  -23.5740 H     4149  TIP4138     0.2052
  12610 H2          3.7630   16.1540  -24.2160 H     4149  TIP4138     0.2052
  12611 OH2        -8.2440    0.7230   18.5910 O.3   4150  TIP4139    -0.4105
  12612 H1         -8.0490    0.1190   19.3070 H     4150  TIP4139     0.2052
  12613 H2         -9.0850    1.1140   18.8280 H     4150  TIP4139     0.2052
  12614 OH2        12.1170  -14.0110   -1.5230 O.3   4151  TIP4140    -0.4105
  12615 H1         11.5650  -13.2510   -1.3350 H     4151  TIP4140     0.2052
  12616 H2         12.1460  -14.0550   -2.4790 H     4151  TIP4140     0.2052
  12617 OH2         3.5410    7.9040   -2.8160 O.3   4152  TIP4141    -0.4105
  12618 H1          3.1290    8.7680   -2.8240 H     4152  TIP4141     0.2052
  12619 H2          2.9830    7.3660   -3.3780 H     4152  TIP4141     0.2052
  12620 OH2        23.8620   -6.5960    5.2450 O.3   4153  TIP4142    -0.4105
  12621 H1         24.0350   -6.6310    4.3040 H     4153  TIP4142     0.2052
  12622 H2         23.5850   -7.4840    5.4710 H     4153  TIP4142     0.2052
  12623 OH2       -15.3600   14.0980  -16.4900 O.3   4154  TIP4143    -0.4105
  12624 H1        -14.8880   13.4770  -15.9350 H     4154  TIP4143     0.2052
  12625 H2        -15.3110   13.7210  -17.3690 H     4154  TIP4143     0.2052
  12626 OH2        -4.9600   19.3610  -16.6720 O.3   4155  TIP4144    -0.4105
  12627 H1         -5.1450   20.2830  -16.4890 H     4155  TIP4144     0.2052
  12628 H2         -5.6650   19.0870  -17.2580 H     4155  TIP4144     0.2052
  12629 OH2        16.2430   18.2210   -0.6650 O.3   4156  TIP4145    -0.4105
  12630 H1         15.3650   18.1090   -1.0310 H     4156  TIP4145     0.2052
  12631 H2         16.7290   18.6860   -1.3460 H     4156  TIP4145     0.2052
  12632 OH2        27.4540   19.0380   12.8350 O.3   4157  TIP4146    -0.4105
  12633 H1         28.0030   19.6440   13.3320 H     4157  TIP4146     0.2052
  12634 H2         27.8680   18.1830   12.9580 H     4157  TIP4146     0.2052
  12635 OH2        13.7450  -22.7350    5.7250 O.3   4158  TIP4147    -0.4105
  12636 H1         12.8040  -22.6270    5.8630 H     4158  TIP4147     0.2052
  12637 H2         13.8180  -23.5080    5.1650 H     4158  TIP4147     0.2052
  12638 OH2        -3.8870  -14.0000    5.9130 O.3   4159  TIP4148    -0.4105
  12639 H1         -3.6610  -13.6480    5.0510 H     4159  TIP4148     0.2052
  12640 H2         -3.7500  -14.9440    5.8300 H     4159  TIP4148     0.2052
  12641 OH2       -23.0100   31.3040    1.3420 O.3   4160  TIP4149    -0.4105
  12642 H1        -23.5930   31.9900    1.0170 H     4160  TIP4149     0.2052
  12643 H2        -22.4830   31.7360    2.0150 H     4160  TIP4149     0.2052
  12644 OH2       -27.8810   18.3930    7.5020 O.3   4161  TIP4150    -0.4105
  12645 H1        -27.8040   19.2240    7.9710 H     4161  TIP4150     0.2052
  12646 H2        -28.1940   18.6370    6.6310 H     4161  TIP4150     0.2052
  12647 OH2         1.0560    0.9550  -23.2230 O.3   4162  TIP4151    -0.4105
  12648 H1          1.0210    0.1970  -22.6410 H     4162  TIP4151     0.2052
  12649 H2          0.2230    1.4050  -23.0820 H     4162  TIP4151     0.2052
  12650 OH2         4.8200  -25.4840   22.9300 O.3   4163  TIP4152    -0.4105
  12651 H1          5.5600  -24.9980   22.5670 H     4163  TIP4152     0.2052
  12652 H2          5.2210  -26.1760   23.4560 H     4163  TIP4152     0.2052
  12653 OH2        31.2190   -5.8940    0.9790 O.3   4164  TIP4153    -0.4105
  12654 H1         30.5080   -5.2530    1.0150 H     4164  TIP4153     0.2052
  12655 H2         31.1430   -6.3840    1.7970 H     4164  TIP4153     0.2052
  12656 OH2        -3.5490   24.9200   -2.0030 O.3   4165  TIP4154    -0.4105
  12657 H1         -4.2100   24.4340   -2.4950 H     4165  TIP4154     0.2052
  12658 H2         -2.8010   24.3240   -1.9530 H     4165  TIP4154     0.2052
  12659 OH2       -17.1180  -18.9650    2.5890 O.3   4166  TIP4155    -0.4105
  12660 H1        -17.6540  -19.4030    1.9280 H     4166  TIP4155     0.2052
  12661 H2        -17.5760  -19.1270    3.4140 H     4166  TIP4155     0.2052
  12662 OH2        14.2580   12.4600  -19.3780 O.3   4167  TIP4156    -0.4105
  12663 H1         14.0710   13.3980  -19.3400 H     4167  TIP4156     0.2052
  12664 H2         13.4960   12.0800  -19.8150 H     4167  TIP4156     0.2052
  12665 OH2         8.0130   -6.3250  -20.5690 O.3   4168  TIP4157    -0.4105
  12666 H1          8.5860   -6.7490  -21.2080 H     4168  TIP4157     0.2052
  12667 H2          7.3230   -6.9670  -20.4030 H     4168  TIP4157     0.2052
  12668 OH2        -4.0740    4.8080  -30.4190 O.3   4169  TIP4158    -0.4105
  12669 H1         -3.1380    4.6980  -30.5840 H     4169  TIP4158     0.2052
  12670 H2         -4.4070    5.2440  -31.2030 H     4169  TIP4158     0.2052
  12671 OH2         1.2570    2.0610   31.8680 O.3   4170  TIP4159    -0.4105
  12672 H1          1.3160    1.4680   31.1200 H     4170  TIP4159     0.2052
  12673 H2          2.0080    2.6470   31.7700 H     4170  TIP4159     0.2052
  12674 OH2         4.2430   18.5310    1.6830 O.3   4171  TIP4160    -0.4105
  12675 H1          4.3530   19.2340    2.3240 H     4171  TIP4160     0.2052
  12676 H2          5.1060   18.1210    1.6260 H     4171  TIP4160     0.2052
  12677 OH2         3.1940    2.2340    6.7890 O.3   4172  TIP4161    -0.4105
  12678 H1          3.0800    1.9800    5.8730 H     4172  TIP4161     0.2052
  12679 H2          3.7860    2.9850    6.7580 H     4172  TIP4161     0.2052
  12680 OH2        -1.1990   -4.5040   25.1000 O.3   4173  TIP4162    -0.4105
  12681 H1         -0.9430   -3.6390   24.7790 H     4173  TIP4162     0.2052
  12682 H2         -1.8080   -4.8340   24.4400 H     4173  TIP4162     0.2052
  12683 OH2       -21.6150   27.4350    6.6800 O.3   4174  TIP4163    -0.4105
  12684 H1        -21.6800   26.5970    6.2230 H     4174  TIP4163     0.2052
  12685 H2        -20.7350   27.4360    7.0560 H     4174  TIP4163     0.2052
  12686 OH2       -13.2690  -17.8540    3.9340 O.3   4175  TIP4164    -0.4105
  12687 H1        -13.3140  -16.9190    3.7360 H     4175  TIP4164     0.2052
  12688 H2        -12.5190  -18.1700    3.4310 H     4175  TIP4164     0.2052
  12689 OH2        14.4170   -2.5120   -5.6730 O.3   4176  TIP4165    -0.4105
  12690 H1         14.2450   -2.9240   -6.5200 H     4176  TIP4165     0.2052
  12691 H2         15.3090   -2.1750   -5.7460 H     4176  TIP4165     0.2052
  12692 OH2        -8.3230    0.7990   10.1400 O.3   4177  TIP4166    -0.4105
  12693 H1         -8.5290    1.1230    9.2640 H     4177  TIP4166     0.2052
  12694 H2         -8.0330   -0.1020   10.0010 H     4177  TIP4166     0.2052
  12695 OH2        -0.5940   -2.0150  -23.5100 O.3   4178  TIP4167    -0.4105
  12696 H1         -0.9910   -1.2850  -23.9850 H     4178  TIP4167     0.2052
  12697 H2         -0.0470   -2.4560  -24.1610 H     4178  TIP4167     0.2052
  12698 OH2         6.9820  -28.0440    5.9730 O.3   4179  TIP4168    -0.4105
  12699 H1          7.4620  -27.4430    6.5430 H     4179  TIP4168     0.2052
  12700 H2          6.5480  -27.4760    5.3360 H     4179  TIP4168     0.2052
  12701 OH2       -12.4810  -12.4770   22.3370 O.3   4180  TIP4169    -0.4105
  12702 H1        -12.8610  -12.0200   23.0880 H     4180  TIP4169     0.2052
  12703 H2        -12.0880  -13.2660   22.7090 H     4180  TIP4169     0.2052
  12704 OH2        -9.4160   -7.9010   -9.3140 O.3   4181  TIP4170    -0.4105
  12705 H1         -8.9320   -7.7620   -8.5000 H     4181  TIP4170     0.2052
  12706 H2        -10.3220   -8.0330   -9.0340 H     4181  TIP4170     0.2052
  12707 OH2        11.2270    8.3990    3.6340 O.3   4182  TIP4171    -0.4105
  12708 H1         11.5160    7.6550    4.1630 H     4182  TIP4171     0.2052
  12709 H2         11.8440    8.4280    2.9040 H     4182  TIP4171     0.2052
  12710 OH2        18.6960   15.0440   -8.2260 O.3   4183  TIP4172    -0.4105
  12711 H1         19.3090   15.6990   -8.5600 H     4183  TIP4172     0.2052
  12712 H2         19.2020   14.2310   -8.2040 H     4183  TIP4172     0.2052
  12713 OH2         5.4110    9.9180   20.2230 O.3   4184  TIP4173    -0.4105
  12714 H1          4.9270   10.7430   20.2180 H     4184  TIP4173     0.2052
  12715 H2          5.0860    9.4540   20.9940 H     4184  TIP4173     0.2052
  12716 OH2        -6.5920   18.4680   10.2630 O.3   4185  TIP4174    -0.4105
  12717 H1         -6.9680   17.5880   10.2330 H     4185  TIP4174     0.2052
  12718 H2         -6.0620   18.4750   11.0600 H     4185  TIP4174     0.2052
  12719 OH2        -7.9030  -10.5850   11.0880 O.3   4186  TIP4175    -0.4105
  12720 H1         -8.1780  -10.0140   11.8050 H     4186  TIP4175     0.2052
  12721 H2         -7.0190  -10.8630   11.3280 H     4186  TIP4175     0.2052
  12722 OH2        -9.6420   23.8520  -21.2920 O.3   4187  TIP4176    -0.4105
  12723 H1        -10.5680   23.8180  -21.0510 H     4187  TIP4176     0.2052
  12724 H2         -9.1750   23.6570  -20.4800 H     4187  TIP4176     0.2052
  12725 OH2        25.5980   12.6460    5.0310 O.3   4188  TIP4177    -0.4105
  12726 H1         25.9190   13.0590    4.2290 H     4188  TIP4177     0.2052
  12727 H2         25.8330   11.7220    4.9350 H     4188  TIP4177     0.2052
  12728 OH2       -12.6140  -10.4540   24.4410 O.3   4189  TIP4178    -0.4105
  12729 H1        -12.9050  -10.4290   25.3530 H     4189  TIP4178     0.2052
  12730 H2        -11.6680  -10.3210   24.4880 H     4189  TIP4178     0.2052
  12731 OH2        -5.1550  -13.5400  -24.8050 O.3   4190  TIP4179    -0.4105
  12732 H1         -4.4350  -13.3840  -25.4150 H     4190  TIP4179     0.2052
  12733 H2         -5.7300  -14.1530  -25.2630 H     4190  TIP4179     0.2052
  12734 OH2        -7.4830  -12.6470   27.8510 O.3   4191  TIP4180    -0.4105
  12735 H1         -7.1740  -13.5460   27.7410 H     4191  TIP4180     0.2052
  12736 H2         -7.9930  -12.6660   28.6610 H     4191  TIP4180     0.2052
  12737 OH2         6.3230   21.2580   -8.1330 O.3   4192  TIP4181    -0.4105
  12738 H1          6.8900   22.0180   -8.2630 H     4192  TIP4181     0.2052
  12739 H2          5.5170   21.6200   -7.7650 H     4192  TIP4181     0.2052
  12740 OH2       -20.2300   -6.4670    7.3170 O.3   4193  TIP4182    -0.4105
  12741 H1        -21.0470   -6.4480    6.8170 H     4193  TIP4182     0.2052
  12742 H2        -19.7980   -5.6410    7.1010 H     4193  TIP4182     0.2052
  12743 OH2       -18.9020   -9.6140   18.6740 O.3   4194  TIP4183    -0.4105
  12744 H1        -19.1760   -9.6740   19.5890 H     4194  TIP4183     0.2052
  12745 H2        -19.5830   -9.0900   18.2520 H     4194  TIP4183     0.2052
  12746 OH2       -18.3170    1.7440   12.2960 O.3   4195  TIP4184    -0.4105
  12747 H1        -19.2160    1.6480   12.6080 H     4195  TIP4184     0.2052
  12748 H2        -18.0910    2.6540   12.4910 H     4195  TIP4184     0.2052
  12749 OH2        -5.3950   30.7440    6.6170 O.3   4196  TIP4185    -0.4105
  12750 H1         -4.9150   29.9890    6.2780 H     4196  TIP4185     0.2052
  12751 H2         -5.1270   30.8070    7.5340 H     4196  TIP4185     0.2052
  12752 OH2         1.7970   20.3140  -34.4660 O.3   4197  TIP4186    -0.4105
  12753 H1          1.6100   20.3310  -35.4040 H     4197  TIP4186     0.2052
  12754 H2          2.6850   19.9620  -34.4030 H     4197  TIP4186     0.2052
  12755 OH2       -14.4760  -15.0800   11.3850 O.3   4198  TIP4187    -0.4105
  12756 H1        -13.5430  -15.0460   11.5970 H     4198  TIP4187     0.2052
  12757 H2        -14.5940  -14.4100   10.7120 H     4198  TIP4187     0.2052
  12758 OH2        14.8630  -25.2410   15.4670 O.3   4199  TIP4188    -0.4105
  12759 H1         14.0700  -24.8700   15.8530 H     4199  TIP4188     0.2052
  12760 H2         14.8560  -26.1590   15.7390 H     4199  TIP4188     0.2052
  12761 OH2       -24.0160    2.1970   -8.0750 O.3   4200  TIP4189    -0.4105
  12762 H1        -24.3270    2.5440   -8.9110 H     4200  TIP4189     0.2052
  12763 H2        -24.7880    1.7920   -7.6810 H     4200  TIP4189     0.2052
  12764 OH2         4.2850   18.0550   -5.3330 O.3   4201  TIP4190    -0.4105
  12765 H1          4.7990   17.8940   -4.5410 H     4201  TIP4190     0.2052
  12766 H2          4.9360   18.1140   -6.0330 H     4201  TIP4190     0.2052
  12767 OH2         6.1790  -18.3230   14.3620 O.3   4202  TIP4191    -0.4105
  12768 H1          5.6540  -19.0200   14.7560 H     4202  TIP4191     0.2052
  12769 H2          6.9860  -18.7560   14.0850 H     4202  TIP4191     0.2052
  12770 OH2       -17.6570   33.1160   -4.6080 O.3   4203  TIP4192    -0.4105
  12771 H1        -18.4880   33.5850   -4.5280 H     4203  TIP4192     0.2052
  12772 H2        -17.1300   33.4340   -3.8750 H     4203  TIP4192     0.2052
  12773 OH2        -5.3900   -4.3150   -7.2160 O.3   4204  TIP4193    -0.4105
  12774 H1         -5.1790   -4.4480   -8.1410 H     4204  TIP4193     0.2052
  12775 H2         -6.2250   -3.8470   -7.2250 H     4204  TIP4193     0.2052
  12776 OH2         7.4090   -4.3920  -23.5170 O.3   4205  TIP4194    -0.4105
  12777 H1          6.6420   -4.9180  -23.2920 H     4205  TIP4194     0.2052
  12778 H2          8.1220   -5.0260  -23.5910 H     4205  TIP4194     0.2052
  12779 OH2        -1.3860    6.0380   27.8120 O.3   4206  TIP4195    -0.4105
  12780 H1         -1.8310    6.8230   27.4910 H     4206  TIP4195     0.2052
  12781 H2         -0.5460    6.3570   28.1410 H     4206  TIP4195     0.2052
  12782 OH2         2.0470   19.7830   -5.1640 O.3   4207  TIP4196    -0.4105
  12783 H1          2.6330   19.1720   -5.6090 H     4207  TIP4196     0.2052
  12784 H2          1.5360   19.2360   -4.5680 H     4207  TIP4196     0.2052
  12785 OH2        -4.1560   -6.2070  -14.3120 O.3   4208  TIP4197    -0.4105
  12786 H1         -3.8890   -5.3200  -14.0690 H     4208  TIP4197     0.2052
  12787 H2         -3.8480   -6.3120  -15.2120 H     4208  TIP4197     0.2052
  12788 OH2       -18.0520   -5.1010  -18.0810 O.3   4209  TIP4198    -0.4105
  12789 H1        -18.7020   -5.7610  -17.8400 H     4209  TIP4198     0.2052
  12790 H2        -17.9460   -5.2020  -19.0260 H     4209  TIP4198     0.2052
  12791 OH2        -3.2560  -10.0620  -21.5280 O.3   4210  TIP4199    -0.4105
  12792 H1         -2.9180   -9.7100  -22.3510 H     4210  TIP4199     0.2052
  12793 H2         -4.1980   -9.8980  -21.5650 H     4210  TIP4199     0.2052
  12794 OH2         2.3210   19.8310  -26.5510 O.3   4211  TIP4200    -0.4105
  12795 H1          1.5230   20.2030  -26.9260 H     4211  TIP4200     0.2052
  12796 H2          2.1120   19.6950  -25.6270 H     4211  TIP4200     0.2052
  12797 OH2         2.8390  -24.7730   -5.5800 O.3   4212  TIP4201    -0.4105
  12798 H1          3.2360  -24.8370   -6.4480 H     4212  TIP4201     0.2052
  12799 H2          3.0710  -25.5960   -5.1490 H     4212  TIP4201     0.2052
  12800 OH2        -8.1730    4.9640  -10.5060 O.3   4213  TIP4202    -0.4105
  12801 H1         -7.6870    4.5610   -9.7860 H     4213  TIP4202     0.2052
  12802 H2         -8.0340    4.3750  -11.2480 H     4213  TIP4202     0.2052
  12803 OH2         3.8650   16.5850   -1.2940 O.3   4214  TIP4203    -0.4105
  12804 H1          4.6830   16.4680   -1.7770 H     4214  TIP4203     0.2052
  12805 H2          4.1200   17.0550   -0.5000 H     4214  TIP4203     0.2052
  12806 OH2        19.2150   -2.3080   15.0870 O.3   4215  TIP4204    -0.4105
  12807 H1         19.9250   -1.7060   15.3100 H     4215  TIP4204     0.2052
  12808 H2         18.7960   -1.9110   14.3230 H     4215  TIP4204     0.2052
  12809 OH2        28.0360   -1.2370   -2.0120 O.3   4216  TIP4205    -0.4105
  12810 H1         28.0810   -0.7620   -2.8420 H     4216  TIP4205     0.2052
  12811 H2         28.9250   -1.5600   -1.8710 H     4216  TIP4205     0.2052
  12812 OH2        10.6060   -0.5910  -20.9290 O.3   4217  TIP4206    -0.4105
  12813 H1         10.3130    0.2570  -21.2650 H     4217  TIP4206     0.2052
  12814 H2          9.7990   -1.0390  -20.6750 H     4217  TIP4206     0.2052
  12815 OH2         8.4370   -4.3700   29.3770 O.3   4218  TIP4207    -0.4105
  12816 H1          7.7680   -4.6340   30.0090 H     4218  TIP4207     0.2052
  12817 H2          8.7450   -3.5210   29.6940 H     4218  TIP4207     0.2052
  12818 OH2        33.0220    2.2380   -8.2940 O.3   4219  TIP4208    -0.4105
  12819 H1         32.3500    2.6900   -7.7840 H     4219  TIP4208     0.2052
  12820 H2         32.7060    1.3370   -8.3630 H     4219  TIP4208     0.2052
  12821 OH2         4.3430   -2.4780   30.6350 O.3   4220  TIP4209    -0.4105
  12822 H1          4.5420   -2.6830   29.7210 H     4220  TIP4209     0.2052
  12823 H2          4.7310   -3.1980   31.1320 H     4220  TIP4209     0.2052
  12824 OH2        18.3660    9.3970   19.0970 O.3   4221  TIP4210    -0.4105
  12825 H1         17.8530   10.1280   19.4410 H     4221  TIP4210     0.2052
  12826 H2         19.0250    9.2280   19.7710 H     4221  TIP4210     0.2052
  12827 OH2         3.4310   24.1010   18.1820 O.3   4222  TIP4211    -0.4105
  12828 H1          2.5170   24.3850   18.1800 H     4222  TIP4211     0.2052
  12829 H2          3.5290   23.6020   17.3720 H     4222  TIP4211     0.2052
  12830 OH2         8.7970   20.1670    3.2110 O.3   4223  TIP4212    -0.4105
  12831 H1          8.2300   19.6890    2.6060 H     4223  TIP4212     0.2052
  12832 H2          9.6820   20.0200    2.8780 H     4223  TIP4212     0.2052
  12833 OH2       -20.6000  -10.7810    1.3010 O.3   4224  TIP4213    -0.4105
  12834 H1        -21.5410  -10.7460    1.1340 H     4224  TIP4213     0.2052
  12835 H2        -20.4940  -11.4980    1.9270 H     4224  TIP4213     0.2052
  12836 OH2        -0.3350   18.2010    2.0680 O.3   4225  TIP4214    -0.4105
  12837 H1          0.4570   17.8480    2.4730 H     4225  TIP4214     0.2052
  12838 H2         -0.7660   17.4400    1.6800 H     4225  TIP4214     0.2052
  12839 OH2        12.9520   -4.1690   10.8200 O.3   4226  TIP4215    -0.4105
  12840 H1         13.2780   -3.2930   10.6140 H     4226  TIP4215     0.2052
  12841 H2         13.6730   -4.5890   11.2880 H     4226  TIP4215     0.2052
  12842 OH2       -23.7520   10.4250    4.5420 O.3   4227  TIP4216    -0.4105
  12843 H1        -24.0860    9.8290    3.8710 H     4227  TIP4216     0.2052
  12844 H2        -24.0580   11.2900    4.2690 H     4227  TIP4216     0.2052
  12845 OH2        -1.0720    1.8940  -30.8900 O.3   4228  TIP4217    -0.4105
  12846 H1         -1.3590    2.7980  -30.7630 H     4228  TIP4217     0.2052
  12847 H2         -1.3010    1.4530  -30.0720 H     4228  TIP4217     0.2052
  12848 OH2         6.6170   10.1700  -28.7620 O.3   4229  TIP4218    -0.4105
  12849 H1          5.8390   10.6080  -29.1050 H     4229  TIP4218     0.2052
  12850 H2          6.3380    9.8100  -27.9200 H     4229  TIP4218     0.2052
  12851 OH2        20.8120  -33.4780    5.3750 O.3   4230  TIP4219    -0.4105
  12852 H1         20.6200  -33.3470    4.4470 H     4230  TIP4219     0.2052
  12853 H2         20.1500  -34.1020    5.6710 H     4230  TIP4219     0.2052
  12854 OH2       -19.3210   -3.7080    6.4590 O.3   4231  TIP4220    -0.4105
  12855 H1        -19.1110   -3.6050    5.5300 H     4231  TIP4220     0.2052
  12856 H2        -20.0460   -3.1030    6.6100 H     4231  TIP4220     0.2052
  12857 OH2         5.3960   -6.8130   10.6940 O.3   4232  TIP4221    -0.4105
  12858 H1          4.5570   -6.5130   10.3450 H     4232  TIP4221     0.2052
  12859 H2          5.2010   -7.0800   11.5930 H     4232  TIP4221     0.2052
  12860 OH2       -28.5680   13.9040    7.6880 O.3   4233  TIP4222    -0.4105
  12861 H1        -27.9070   14.5960    7.6450 H     4233  TIP4222     0.2052
  12862 H2        -29.3830   14.3630    7.8890 H     4233  TIP4222     0.2052
  12863 OH2        -9.4880   -3.3940   10.8540 O.3   4234  TIP4223    -0.4105
  12864 H1         -9.8200   -3.5020   11.7460 H     4234  TIP4223     0.2052
  12865 H2        -10.2380   -3.5910   10.2940 H     4234  TIP4223     0.2052
  12866 OH2       -15.7690  -11.5400    9.0440 O.3   4235  TIP4224    -0.4105
  12867 H1        -16.3620  -10.8290    9.2900 H     4235  TIP4224     0.2052
  12868 H2        -15.1350  -11.5830    9.7600 H     4235  TIP4224     0.2052
  12869 OH2       -15.8900   -3.1340  -12.2470 O.3   4236  TIP4225    -0.4105
  12870 H1        -15.0390   -2.7410  -12.4430 H     4236  TIP4225     0.2052
  12871 H2        -15.7300   -3.6810  -11.4780 H     4236  TIP4225     0.2052
  12872 OH2       -19.6350   19.1310  -10.1120 O.3   4237  TIP4226    -0.4105
  12873 H1        -19.5150   18.2190   -9.8450 H     4237  TIP4226     0.2052
  12874 H2        -18.8450   19.3420  -10.6080 H     4237  TIP4226     0.2052
  12875 OH2         0.3520    7.2450  -25.3130 O.3   4238  TIP4227    -0.4105
  12876 H1          0.2720    7.3280  -26.2630 H     4238  TIP4227     0.2052
  12877 H2          1.0990    6.6590  -25.1860 H     4238  TIP4227     0.2052
  12878 OH2        10.4500  -10.9280    9.9990 O.3   4239  TIP4228    -0.4105
  12879 H1         10.9470  -10.2230   10.4130 H     4239  TIP4228     0.2052
  12880 H2         10.0130  -11.3730   10.7250 H     4239  TIP4228     0.2052
  12881 OH2        22.1610  -19.4530    1.8230 O.3   4240  TIP4229    -0.4105
  12882 H1         21.2810  -19.1730    1.5700 H     4240  TIP4229     0.2052
  12883 H2         22.3970  -20.1180    1.1760 H     4240  TIP4229     0.2052
  12884 OH2        -3.1070   -1.8660   -7.8330 O.3   4241  TIP4230    -0.4105
  12885 H1         -2.2900   -2.2280   -7.4900 H     4241  TIP4230     0.2052
  12886 H2         -2.8300   -1.1520   -8.4070 H     4241  TIP4230     0.2052
  12887 OH2       -35.9540    4.8620    7.7420 O.3   4242  TIP4231    -0.4105
  12888 H1        -36.8810    5.0700    7.6250 H     4242  TIP4231     0.2052
  12889 H2        -35.7160    5.2790    8.5700 H     4242  TIP4231     0.2052
  12890 OH2        -4.3310    9.0040   -4.7420 O.3   4243  TIP4232    -0.4105
  12891 H1         -4.9630    9.4600   -4.1870 H     4243  TIP4232     0.2052
  12892 H2         -4.8670    8.4600   -5.3190 H     4243  TIP4232     0.2052
  12893 OH2       -19.7260   -7.1690    1.7130 O.3   4244  TIP4233    -0.4105
  12894 H1        -20.1120   -7.0790    0.8410 H     4244  TIP4233     0.2052
  12895 H2        -20.4020   -6.8460    2.3090 H     4244  TIP4233     0.2052
  12896 OH2        12.5060   17.1530  -19.3320 O.3   4245  TIP4234    -0.4105
  12897 H1         12.6720   17.9840  -19.7770 H     4245  TIP4234     0.2052
  12898 H2         11.6050   17.2250  -19.0170 H     4245  TIP4234     0.2052
  12899 OH2        -1.0180  -13.4560  -15.2300 O.3   4246  TIP4235    -0.4105
  12900 H1         -0.4450  -12.7130  -15.4150 H     4246  TIP4235     0.2052
  12901 H2         -1.5390  -13.5620  -16.0260 H     4246  TIP4235     0.2052
  12902 OH2         7.0190  -22.3270   17.2110 O.3   4247  TIP4236    -0.4105
  12903 H1          6.3850  -22.9620   16.8790 H     4247  TIP4236     0.2052
  12904 H2          7.7930  -22.8490   17.4230 H     4247  TIP4236     0.2052
  12905 OH2         8.3230   -6.7890   -4.4440 O.3   4248  TIP4237    -0.4105
  12906 H1          8.0870   -7.4510   -3.7930 H     4248  TIP4237     0.2052
  12907 H2          8.6160   -7.2930   -5.2030 H     4248  TIP4237     0.2052
  12908 OH2        -5.9110    2.6000  -14.7230 O.3   4249  TIP4238    -0.4105
  12909 H1         -5.9880    3.1700  -15.4880 H     4249  TIP4238     0.2052
  12910 H2         -5.9060    1.7130  -15.0830 H     4249  TIP4238     0.2052
  12911 OH2         9.0490  -23.9910   -1.8730 O.3   4250  TIP4239    -0.4105
  12912 H1          9.5190  -24.2110   -1.0690 H     4250  TIP4239     0.2052
  12913 H2          8.2200  -24.4640   -1.8040 H     4250  TIP4239     0.2052
  12914 OH2        -6.3810  -25.0480   -5.3950 O.3   4251  TIP4240    -0.4105
  12915 H1         -5.6490  -25.1630   -4.7890 H     4251  TIP4240     0.2052
  12916 H2         -5.9680  -24.8790   -6.2420 H     4251  TIP4240     0.2052
  12917 OH2       -26.8770  -11.3760   -9.1990 O.3   4252  TIP4241    -0.4105
  12918 H1        -27.0920  -11.7870  -10.0360 H     4252  TIP4241     0.2052
  12919 H2        -26.9980  -12.0710   -8.5520 H     4252  TIP4241     0.2052
  12920 OH2        11.3590   12.8870   14.7960 O.3   4253  TIP4242    -0.4105
  12921 H1         11.5580   12.4840   15.6410 H     4253  TIP4242     0.2052
  12922 H2         11.5010   12.1890   14.1580 H     4253  TIP4242     0.2052
  12923 OH2       -19.2190   25.1050    7.8660 O.3   4254  TIP4243    -0.4105
  12924 H1        -18.3660   25.0510    8.2980 H     4254  TIP4243     0.2052
  12925 H2        -19.8070   25.4480    8.5390 H     4254  TIP4243     0.2052
  12926 OH2        -7.3240  -17.8690   12.8080 O.3   4255  TIP4244    -0.4105
  12927 H1         -8.2810  -17.8500   12.8340 H     4255  TIP4244     0.2052
  12928 H2         -7.0540  -17.5200   13.6570 H     4255  TIP4244     0.2052
  12929 OH2        10.5760    9.0940   11.3480 O.3   4256  TIP4245    -0.4105
  12930 H1         10.7000    9.7090   12.0710 H     4256  TIP4245     0.2052
  12931 H2         10.6540    9.6320   10.5600 H     4256  TIP4245     0.2052
  12932 OH2       -13.8880  -19.2710  -27.5540 O.3   4257  TIP4246    -0.4105
  12933 H1        -14.4860  -19.1770  -26.8130 H     4257  TIP4246     0.2052
  12934 H2        -14.2580  -18.7080  -28.2340 H     4257  TIP4246     0.2052
  12935 OH2         6.8330    5.5600   13.9120 O.3   4258  TIP4247    -0.4105
  12936 H1          7.2680    4.7080   13.9530 H     4258  TIP4247     0.2052
  12937 H2          7.4440    6.1620   14.3360 H     4258  TIP4247     0.2052
  12938 OH2        15.5870    7.5100    8.1440 O.3   4259  TIP4248    -0.4105
  12939 H1         15.6600    7.6640    7.2030 H     4259  TIP4248     0.2052
  12940 H2         16.4750    7.6370    8.4780 H     4259  TIP4248     0.2052
  12941 OH2       -12.1180   14.0850   -1.0970 O.3   4260  TIP4249    -0.4105
  12942 H1        -12.2820   15.0260   -1.0360 H     4260  TIP4249     0.2052
  12943 H2        -11.3750   14.0090   -1.6950 H     4260  TIP4249     0.2052
  12944 OH2        -0.9500   11.9990  -19.0910 O.3   4261  TIP4250    -0.4105
  12945 H1         -0.1040   12.3780  -18.8500 H     4261  TIP4250     0.2052
  12946 H2         -1.5350   12.7520  -19.1750 H     4261  TIP4250     0.2052
  12947 OH2         3.1250  -11.1350   -9.3320 O.3   4262  TIP4251    -0.4105
  12948 H1          4.0170  -11.1250   -9.6780 H     4262  TIP4251     0.2052
  12949 H2          3.2200  -11.4450   -8.4310 H     4262  TIP4251     0.2052
  12950 OH2       -11.8150   10.1770   21.9170 O.3   4263  TIP4252    -0.4105
  12951 H1        -11.3220   10.4090   22.7040 H     4263  TIP4252     0.2052
  12952 H2        -11.9890    9.2400   22.0100 H     4263  TIP4252     0.2052
  12953 OH2        28.6270    3.9710   -4.8690 O.3   4264  TIP4253    -0.4105
  12954 H1         28.1110    4.7700   -4.9790 H     4264  TIP4253     0.2052
  12955 H2         28.0150    3.2610   -5.0620 H     4264  TIP4253     0.2052
  12956 OH2        -0.7760   24.3680  -17.9160 O.3   4265  TIP4254    -0.4105
  12957 H1          0.1130   24.1230  -17.6600 H     4265  TIP4254     0.2052
  12958 H2         -1.1840   23.5460  -18.1880 H     4265  TIP4254     0.2052
  12959 OH2         4.9560  -10.7500   27.8310 O.3   4266  TIP4255    -0.4105
  12960 H1          4.0860  -11.1100   28.0040 H     4266  TIP4255     0.2052
  12961 H2          5.1100  -10.9310   26.9040 H     4266  TIP4255     0.2052
  12962 OH2       -30.1410   -9.1190   -2.7640 O.3   4267  TIP4256    -0.4105
  12963 H1        -30.7490   -8.6520   -2.1920 H     4267  TIP4256     0.2052
  12964 H2        -29.3530   -8.5760   -2.7720 H     4267  TIP4256     0.2052
  12965 OH2        12.1710   19.3470    9.4380 O.3   4268  TIP4257    -0.4105
  12966 H1         12.4840   19.3460    8.5340 H     4268  TIP4257     0.2052
  12967 H2         11.6530   18.5450    9.5140 H     4268  TIP4257     0.2052
  12968 OH2       -20.4700   11.8690   -2.3040 O.3   4269  TIP4258    -0.4105
  12969 H1        -20.1210   12.5530   -2.8740 H     4269  TIP4258     0.2052
  12970 H2        -20.6270   11.1270   -2.8890 H     4269  TIP4258     0.2052
  12971 OH2        -2.9420    2.1960   20.0070 O.3   4270  TIP4259    -0.4105
  12972 H1         -3.5370    1.5720   19.5910 H     4270  TIP4259     0.2052
  12973 H2         -3.1790    2.1730   20.9340 H     4270  TIP4259     0.2052
  12974 OH2        11.3560    9.5160  -26.3060 O.3   4271  TIP4260    -0.4105
  12975 H1         11.4910   10.0170  -25.5020 H     4271  TIP4260     0.2052
  12976 H2         11.2560   10.1790  -26.9890 H     4271  TIP4260     0.2052
  12977 OH2        10.5510  -26.4540   12.6690 O.3   4272  TIP4261    -0.4105
  12978 H1         11.3500  -26.7450   12.2310 H     4272  TIP4261     0.2052
  12979 H2         10.2420  -25.7180   12.1410 H     4272  TIP4261     0.2052
  12980 OH2        -1.5260   10.1470  -12.7840 O.3   4273  TIP4262    -0.4105
  12981 H1         -2.0580    9.9270  -13.5480 H     4273  TIP4262     0.2052
  12982 H2         -2.1380   10.5630  -12.1770 H     4273  TIP4262     0.2052
  12983 OH2        -0.9430   -9.1700  -25.1300 O.3   4274  TIP4263    -0.4105
  12984 H1         -1.8140   -9.0010  -24.7710 H     4274  TIP4263     0.2052
  12985 H2         -1.1050   -9.6690  -25.9310 H     4274  TIP4263     0.2052
  12986 OH2        -5.0390   -4.0320   10.1630 O.3   4275  TIP4264    -0.4105
  12987 H1         -5.2790   -4.3730    9.3010 H     4275  TIP4264     0.2052
  12988 H2         -4.4690   -4.7040   10.5360 H     4275  TIP4264     0.2052
  12989 OH2        29.3290   10.4150   -7.1060 O.3   4276  TIP4265    -0.4105
  12990 H1         28.4180   10.1290   -7.1760 H     4276  TIP4265     0.2052
  12991 H2         29.6910   10.2780   -7.9820 H     4276  TIP4265     0.2052
  12992 OH2        16.2240   10.3690   24.7130 O.3   4277  TIP4266    -0.4105
  12993 H1         15.9800   11.1930   25.1330 H     4277  TIP4266     0.2052
  12994 H2         16.7200   10.6320   23.9380 H     4277  TIP4266     0.2052
  12995 OH2       -14.8510   18.9190    5.6060 O.3   4278  TIP4267    -0.4105
  12996 H1        -15.5930   19.1800    6.1530 H     4278  TIP4267     0.2052
  12997 H2        -15.1710   18.1630    5.1130 H     4278  TIP4267     0.2052
  12998 OH2         5.5710   13.0190   -8.5360 O.3   4279  TIP4268    -0.4105
  12999 H1          4.8930   12.5370   -8.0630 H     4279  TIP4268     0.2052
  13000 H2          6.2050   12.3500   -8.7940 H     4279  TIP4268     0.2052
  13001 OH2       -20.4450   -0.3910   12.0910 O.3   4280  TIP4269    -0.4105
  13002 H1        -20.2550   -1.2600   11.7380 H     4280  TIP4269     0.2052
  13003 H2        -20.8530   -0.5600   12.9400 H     4280  TIP4269     0.2052
  13004 OH2        -0.0440  -16.1940    4.7390 O.3   4281  TIP4270    -0.4105
  13005 H1          0.4710  -16.7080    4.1170 H     4281  TIP4270     0.2052
  13006 H2          0.5990  -15.6470    5.1900 H     4281  TIP4270     0.2052
  13007 OH2       -16.1380    7.3710   16.3210 O.3   4282  TIP4271    -0.4105
  13008 H1        -15.5050    8.0810   16.4390 H     4282  TIP4271     0.2052
  13009 H2        -15.6410    6.5740   16.5070 H     4282  TIP4271     0.2052
  13010 OH2        11.6390    3.6710    8.2440 O.3   4283  TIP4272    -0.4105
  13011 H1         12.3340    4.3280    8.2050 H     4283  TIP4272     0.2052
  13012 H2         11.0430    3.9100    7.5340 H     4283  TIP4272     0.2052
  13013 OH2         3.1450   19.8490  -12.1390 O.3   4284  TIP4273    -0.4105
  13014 H1          3.1420   19.3960  -11.2960 H     4284  TIP4273     0.2052
  13015 H2          2.4230   20.4740  -12.0780 H     4284  TIP4273     0.2052
  13016 OH2        -9.3930   -8.7380    0.0820 O.3   4285  TIP4274    -0.4105
  13017 H1         -8.6870   -9.2340   -0.3330 H     4285  TIP4274     0.2052
  13018 H2         -9.6190   -9.2480    0.8610 H     4285  TIP4274     0.2052
  13019 OH2        14.3280   15.7930  -15.7160 O.3   4286  TIP4275    -0.4105
  13020 H1         13.6280   15.6500  -15.0790 H     4286  TIP4275     0.2052
  13021 H2         14.6280   16.6860  -15.5460 H     4286  TIP4275     0.2052
  13022 OH2         0.9340  -23.1340    2.5660 O.3   4287  TIP4276    -0.4105
  13023 H1          0.9250  -24.0630    2.3390 H     4287  TIP4276     0.2052
  13024 H2          1.2470  -22.6960    1.7740 H     4287  TIP4276     0.2052
  13025 OH2        34.6170    3.3180   -2.4210 O.3   4288  TIP4277    -0.4105
  13026 H1         33.8830    3.0560   -1.8660 H     4288  TIP4277     0.2052
  13027 H2         34.5380    4.2690   -2.4910 H     4288  TIP4277     0.2052
  13028 OH2        17.3380  -10.5490   -3.3390 O.3   4289  TIP4278    -0.4105
  13029 H1         17.1720   -9.6240   -3.1580 H     4289  TIP4278     0.2052
  13030 H2         18.2910  -10.6140   -3.4000 H     4289  TIP4278     0.2052
  13031 OH2        19.6920   -5.7400    3.4390 O.3   4290  TIP4279    -0.4105
  13032 H1         20.1470   -5.1420    4.0320 H     4290  TIP4279     0.2052
  13033 H2         19.2030   -6.3260    4.0170 H     4290  TIP4279     0.2052
  13034 OH2       -25.4370    4.0550    9.2620 O.3   4291  TIP4280    -0.4105
  13035 H1        -25.6910    4.9580    9.4490 H     4291  TIP4280     0.2052
  13036 H2        -26.2180    3.6610    8.8720 H     4291  TIP4280     0.2052
  13037 OH2       -15.9420   -9.5760   11.2680 O.3   4292  TIP4281    -0.4105
  13038 H1        -15.5030   -8.8620   10.8070 H     4292  TIP4281     0.2052
  13039 H2        -16.8250   -9.5940   10.8980 H     4292  TIP4281     0.2052
  13040 OH2       -23.2080    2.1210   12.8190 O.3   4293  TIP4282    -0.4105
  13041 H1        -22.3060    2.3180   13.0700 H     4293  TIP4282     0.2052
  13042 H2        -23.3400    2.5990   12.0000 H     4293  TIP4282     0.2052
  13043 OH2        -0.4670  -26.4680   -3.8460 O.3   4294  TIP4283    -0.4105
  13044 H1         -0.1550  -27.0070   -4.5730 H     4294  TIP4283     0.2052
  13045 H2         -0.0890  -25.6040   -4.0090 H     4294  TIP4283     0.2052
  13046 OH2        16.6700   19.0690    1.8160 O.3   4295  TIP4284    -0.4105
  13047 H1         16.6670   20.0210    1.9070 H     4295  TIP4284     0.2052
  13048 H2         16.5740   18.9170    0.8760 H     4295  TIP4284     0.2052
  13049 OH2         4.5050   22.3610   16.4210 O.3   4296  TIP4285    -0.4105
  13050 H1          3.8020   22.4910   15.7850 H     4296  TIP4285     0.2052
  13051 H2          4.9030   21.5260   16.1720 H     4296  TIP4285     0.2052
  13052 OH2         9.9700  -24.5480    5.6410 O.3   4297  TIP4286    -0.4105
  13053 H1         10.4970  -24.8660    4.9080 H     4297  TIP4286     0.2052
  13054 H2          9.0890  -24.4490    5.2780 H     4297  TIP4286     0.2052
  13055 OH2       -22.1820   18.7820    4.7580 O.3   4298  TIP4287    -0.4105
  13056 H1        -21.8300   18.3840    3.9620 H     4298  TIP4287     0.2052
  13057 H2        -22.3540   18.0420    5.3400 H     4298  TIP4287     0.2052
  13058 OH2        -2.2030   12.8990    6.1960 O.3   4299  TIP4288    -0.4105
  13059 H1         -2.5250   12.1290    5.7280 H     4299  TIP4288     0.2052
  13060 H2         -2.4600   13.6400    5.6470 H     4299  TIP4288     0.2052
  13061 OH2        11.3420    5.2000   13.5160 O.3   4300  TIP4289    -0.4105
  13062 H1         10.5200    5.6720   13.3790 H     4300  TIP4289     0.2052
  13063 H2         11.5870    4.8880   12.6450 H     4300  TIP4289     0.2052
  13064 OH2        -5.4230  -16.4740  -17.7630 O.3   4301  TIP4290    -0.4105
  13065 H1         -5.3790  -15.9310  -16.9770 H     4301  TIP4290     0.2052
  13066 H2         -5.4010  -17.3730  -17.4360 H     4301  TIP4290     0.2052
  13067 OH2       -13.2050   -0.0450  -25.4390 O.3   4302  TIP4291    -0.4105
  13068 H1        -13.5720   -0.9140  -25.6040 H     4302  TIP4291     0.2052
  13069 H2        -12.2780   -0.2050  -25.2640 H     4302  TIP4291     0.2052
  13070 OH2       -26.4250    5.5020   -2.5100 O.3   4303  TIP4292    -0.4105
  13071 H1        -26.2580    6.2720   -3.0540 H     4303  TIP4292     0.2052
  13072 H2        -27.3520    5.5680   -2.2800 H     4303  TIP4292     0.2052
  13073 OH2        -8.8750   16.0640    8.2870 O.3   4304  TIP4293    -0.4105
  13074 H1         -9.0460   16.8910    7.8360 H     4304  TIP4293     0.2052
  13075 H2         -9.6770   15.5550    8.1680 H     4304  TIP4293     0.2052
  13076 OH2       -20.5890    2.0620   10.2590 O.3   4305  TIP4294    -0.4105
  13077 H1        -20.4120    1.3270   10.8450 H     4305  TIP4294     0.2052
  13078 H2        -21.3290    2.5170   10.6610 H     4305  TIP4294     0.2052
  13079 OH2        -2.9070   12.6150    1.9230 O.3   4306  TIP4295    -0.4105
  13080 H1         -3.7850   12.6490    1.5450 H     4306  TIP4295     0.2052
  13081 H2         -2.4270   13.3150    1.4800 H     4306  TIP4295     0.2052
  13082 OH2        14.0520    7.4280   19.7000 O.3   4307  TIP4296    -0.4105
  13083 H1         13.8120    7.8540   18.8780 H     4307  TIP4296     0.2052
  13084 H2         13.2550    7.4590   20.2290 H     4307  TIP4296     0.2052
  13085 OH2        -3.5580  -12.4540   -6.4990 O.3   4308  TIP4297    -0.4105
  13086 H1         -3.9820  -11.6940   -6.1000 H     4308  TIP4297     0.2052
  13087 H2         -4.2590  -13.1000   -6.5890 H     4308  TIP4297     0.2052
  13088 OH2         0.9280   15.5670  -32.0470 O.3   4309  TIP4298    -0.4105
  13089 H1          0.6450   16.1780  -31.3670 H     4309  TIP4298     0.2052
  13090 H2          1.8820   15.5450  -31.9680 H     4309  TIP4298     0.2052
  13091 OH2       -10.1700   17.4060   -7.0940 O.3   4310  TIP4299    -0.4105
  13092 H1        -10.9040   17.4320   -7.7070 H     4310  TIP4299     0.2052
  13093 H2         -9.5930   18.1140   -7.3800 H     4310  TIP4299     0.2052
  13094 OH2       -27.4530   22.2520    6.2790 O.3   4311  TIP4300    -0.4105
  13095 H1        -27.0270   22.6540    7.0370 H     4311  TIP4300     0.2052
  13096 H2        -28.3850   22.4340    6.4040 H     4311  TIP4300     0.2052
  13097 OH2         3.9850   -1.1980   -9.3470 O.3   4312  TIP4301    -0.4105
  13098 H1          4.1150   -0.5430   -8.6610 H     4312  TIP4301     0.2052
  13099 H2          3.4470   -1.8730   -8.9350 H     4312  TIP4301     0.2052
  13100 OH2        -1.2440   20.5580  -20.7690 O.3   4313  TIP4302    -0.4105
  13101 H1         -0.3020   20.6860  -20.8830 H     4313  TIP4302     0.2052
  13102 H2         -1.3230   19.6810  -20.3920 H     4313  TIP4302     0.2052
  13103 OH2       -10.7220    1.5760  -24.1560 O.3   4314  TIP4303    -0.4105
  13104 H1         -9.9980    2.1980  -24.2390 H     4314  TIP4303     0.2052
  13105 H2        -10.5700    0.9370  -24.8520 H     4314  TIP4303     0.2052
  13106 OH2         5.2490    3.8420    4.8920 O.3   4315  TIP4304    -0.4105
  13107 H1          5.0870    3.3390    4.0930 H     4315  TIP4304     0.2052
  13108 H2          5.4450    4.7270    4.5820 H     4315  TIP4304     0.2052
  13109 OH2        -1.7630  -18.7920   -4.1190 O.3   4316  TIP4305    -0.4105
  13110 H1         -2.1970  -18.0850   -4.5960 H     4316  TIP4305     0.2052
  13111 H2         -0.8340  -18.5600   -4.1400 H     4316  TIP4305     0.2052
  13112 OH2         0.9170  -21.0250    4.0920 O.3   4317  TIP4306    -0.4105
  13113 H1          0.0210  -20.8070    4.3490 H     4317  TIP4306     0.2052
  13114 H2          0.8470  -21.8910    3.6890 H     4317  TIP4306     0.2052
  13115 OH2       -19.8940    1.9030  -15.2780 O.3   4318  TIP4307    -0.4105
  13116 H1        -20.6490    2.4310  -15.5370 H     4318  TIP4307     0.2052
  13117 H2        -19.3100    2.5190  -14.8360 H     4318  TIP4307     0.2052
  13118 OH2        -1.4100  -14.6530   -1.8420 O.3   4319  TIP4308    -0.4105
  13119 H1         -0.5450  -15.0490   -1.7440 H     4319  TIP4308     0.2052
  13120 H2         -1.7060  -14.9340   -2.7080 H     4319  TIP4308     0.2052
  13121 OH2        -2.6510   -8.5620   23.1120 O.3   4320  TIP4309    -0.4105
  13122 H1         -3.5920   -8.7130   23.2090 H     4320  TIP4309     0.2052
  13123 H2         -2.4880   -8.6620   22.1740 H     4320  TIP4309     0.2052
  13124 OH2        -3.7600   10.3490  -33.2820 O.3   4321  TIP4310    -0.4105
  13125 H1         -4.2070    9.5100  -33.1720 H     4321  TIP4310     0.2052
  13126 H2         -4.1800   10.7460  -34.0450 H     4321  TIP4310     0.2052
  13127 OH2       -21.9700  -15.2350  -12.2810 O.3   4322  TIP4311    -0.4105
  13128 H1        -22.5700  -15.8750  -11.8980 H     4322  TIP4311     0.2052
  13129 H2        -22.3110  -14.3870  -11.9990 H     4322  TIP4311     0.2052
  13130 OH2        25.1730   -8.6730    0.4730 O.3   4323  TIP4312    -0.4105
  13131 H1         25.1940   -9.5740    0.7940 H     4323  TIP4312     0.2052
  13132 H2         25.3320   -8.7490   -0.4680 H     4323  TIP4312     0.2052
  13133 OH2         9.4290  -12.3650   20.9340 O.3   4324  TIP4313    -0.4105
  13134 H1          8.9080  -11.6340   20.6030 H     4324  TIP4313     0.2052
  13135 H2          9.9700  -11.9820   21.6250 H     4324  TIP4313     0.2052
  13136 OH2         0.0150  -18.1790   -9.2230 O.3   4325  TIP4314    -0.4105
  13137 H1          0.1700  -17.2760   -9.5000 H     4325  TIP4314     0.2052
  13138 H2          0.8610  -18.6130   -9.3340 H     4325  TIP4314     0.2052
  13139 OH2         6.0910  -15.8120    6.4570 O.3   4326  TIP4315    -0.4105
  13140 H1          6.8430  -15.2610    6.2400 H     4326  TIP4315     0.2052
  13141 H2          6.3750  -16.3150    7.2210 H     4326  TIP4315     0.2052
  13142 OH2         9.3730   19.0210   -2.7640 O.3   4327  TIP4316    -0.4105
  13143 H1          9.0370   18.3470   -2.1730 H     4327  TIP4316     0.2052
  13144 H2          9.7680   19.6720   -2.1850 H     4327  TIP4316     0.2052
  13145 OH2         7.2490   -1.7430   30.3570 O.3   4328  TIP4317    -0.4105
  13146 H1          7.8590   -1.4690   31.0430 H     4328  TIP4317     0.2052
  13147 H2          6.3880   -1.7070   30.7740 H     4328  TIP4317     0.2052
  13148 OH2        -6.5220    9.8640  -12.6740 O.3   4329  TIP4318    -0.4105
  13149 H1         -6.9940   10.6330  -12.3560 H     4329  TIP4318     0.2052
  13150 H2         -6.5000    9.2680  -11.9250 H     4329  TIP4318     0.2052
  13151 OH2        -7.0080  -23.5780  -20.0790 O.3   4330  TIP4319    -0.4105
  13152 H1         -6.8190  -24.5100  -20.1880 H     4330  TIP4319     0.2052
  13153 H2         -7.8090  -23.4350  -20.5840 H     4330  TIP4319     0.2052
  13154 OH2       -10.2000  -23.8520  -25.2300 O.3   4331  TIP4320    -0.4105
  13155 H1        -11.1290  -24.0810  -25.2250 H     4331  TIP4320     0.2052
  13156 H2        -10.1870  -22.9010  -25.3340 H     4331  TIP4320     0.2052
  13157 OH2         6.9730   14.4780  -30.1460 O.3   4332  TIP4321    -0.4105
  13158 H1          6.6430   13.6570  -30.5110 H     4332  TIP4321     0.2052
  13159 H2          6.1940   14.9210  -29.8090 H     4332  TIP4321     0.2052
  13160 OH2         5.0900   15.2570  -10.1920 O.3   4333  TIP4322    -0.4105
  13161 H1          4.5440   15.4260   -9.4250 H     4333  TIP4322     0.2052
  13162 H2          5.3280   14.3330  -10.1190 H     4333  TIP4322     0.2052
  13163 OH2       -19.3960   15.5340   13.0740 O.3   4334  TIP4323    -0.4105
  13164 H1        -19.8760   14.9150   13.6240 H     4334  TIP4323     0.2052
  13165 H2        -19.3740   16.3430   13.5860 H     4334  TIP4323     0.2052
  13166 OH2        -1.2380   23.4270   -1.6950 O.3   4335  TIP4324    -0.4105
  13167 H1         -0.4010   23.8900   -1.6850 H     4335  TIP4324     0.2052
  13168 H2         -1.1280   22.7190   -1.0600 H     4335  TIP4324     0.2052
  13169 OH2       -16.0380   17.5370  -13.2610 O.3   4336  TIP4325    -0.4105
  13170 H1        -15.8990   18.2010  -13.9370 H     4336  TIP4325     0.2052
  13171 H2        -16.5460   16.8530  -13.6980 H     4336  TIP4325     0.2052
  13172 OH2       -19.7650    1.8390   20.9400 O.3   4337  TIP4326    -0.4105
  13173 H1        -18.9780    2.0200   21.4530 H     4337  TIP4326     0.2052
  13174 H2        -19.9050    0.8970   21.0380 H     4337  TIP4326     0.2052
  13175 OH2       -13.4730  -21.7290  -29.1090 O.3   4338  TIP4327    -0.4105
  13176 H1        -13.4580  -20.9720  -28.5230 H     4338  TIP4327     0.2052
  13177 H2        -12.9470  -22.3910  -28.6600 H     4338  TIP4327     0.2052
  13178 OH2        28.4090  -21.3600   -1.9420 O.3   4339  TIP4328    -0.4105
  13179 H1         28.6870  -21.2860   -2.8550 H     4339  TIP4328     0.2052
  13180 H2         29.1780  -21.1020   -1.4350 H     4339  TIP4328     0.2052
  13181 OH2        15.8710  -29.8520   -3.8670 O.3   4340  TIP4329    -0.4105
  13182 H1         15.3150  -30.4750   -4.3360 H     4340  TIP4329     0.2052
  13183 H2         15.3010  -29.1020   -3.6980 H     4340  TIP4329     0.2052
  13184 OH2       -27.5910   11.9280    1.0450 O.3   4341  TIP4330    -0.4105
  13185 H1        -28.3790   11.7170    0.5440 H     4341  TIP4330     0.2052
  13186 H2        -27.9170   12.3550    1.8370 H     4341  TIP4330     0.2052
  13187 OH2        -5.9990  -12.0630  -21.2700 O.3   4342  TIP4331    -0.4105
  13188 H1         -6.0620  -11.8150  -20.3480 H     4342  TIP4331     0.2052
  13189 H2         -6.6300  -12.7760  -21.3710 H     4342  TIP4331     0.2052
  13190 OH2        -3.2100   23.9030   14.2310 O.3   4343  TIP4332    -0.4105
  13191 H1         -2.3420   24.1340   13.9010 H     4343  TIP4332     0.2052
  13192 H2         -3.7710   23.9120   13.4550 H     4343  TIP4332     0.2052
  13193 OH2        12.2180  -30.4550    6.6770 O.3   4344  TIP4333    -0.4105
  13194 H1         11.3770  -30.0360    6.4940 H     4344  TIP4333     0.2052
  13195 H2         12.6090  -29.9160    7.3650 H     4344  TIP4333     0.2052
  13196 OH2        -4.1900  -18.6570   24.5750 O.3   4345  TIP4334    -0.4105
  13197 H1         -4.0630  -17.7330   24.3590 H     4345  TIP4334     0.2052
  13198 H2         -4.0090  -18.7110   25.5130 H     4345  TIP4334     0.2052
  13199 OH2        -7.8490   13.0210  -25.1910 O.3   4346  TIP4335    -0.4105
  13200 H1         -7.9530   13.9470  -24.9680 H     4346  TIP4335     0.2052
  13201 H2         -6.9870   12.9700  -25.6040 H     4346  TIP4335     0.2052
  13202 OH2        -2.4430   18.2190  -14.3970 O.3   4347  TIP4336    -0.4105
  13203 H1         -3.1930   18.3140  -13.8100 H     4347  TIP4336     0.2052
  13204 H2         -1.8660   17.6000  -13.9500 H     4347  TIP4336     0.2052
  13205 OH2       -11.4590   -3.0970    5.2330 O.3   4348  TIP4337    -0.4105
  13206 H1        -11.7210   -3.9980    5.4210 H     4348  TIP4337     0.2052
  13207 H2        -12.2630   -2.6700    4.9380 H     4348  TIP4337     0.2052
  13208 OH2       -17.0360   15.4330    8.7240 O.3   4349  TIP4338    -0.4105
  13209 H1        -16.2480   15.7830    9.1400 H     4349  TIP4338     0.2052
  13210 H2        -17.7240   15.5430    9.3800 H     4349  TIP4338     0.2052
  13211 OH2        13.3180    8.8270  -18.9790 O.3   4350  TIP4339    -0.4105
  13212 H1         12.3710    8.8300  -19.1190 H     4350  TIP4339     0.2052
  13213 H2         13.6740    9.3000  -19.7310 H     4350  TIP4339     0.2052
  13214 OH2        13.9680  -29.7880    0.8870 O.3   4351  TIP4340    -0.4105
  13215 H1         14.7290  -30.3580    0.9980 H     4351  TIP4340     0.2052
  13216 H2         13.2170  -30.3500    1.0740 H     4351  TIP4340     0.2052
  13217 OH2        -2.8670   11.7710   22.7150 O.3   4352  TIP4341    -0.4105
  13218 H1         -2.0550   11.2650   22.6760 H     4352  TIP4341     0.2052
  13219 H2         -2.7920   12.4000   21.9970 H     4352  TIP4341     0.2052
  13220 OH2         5.2350  -10.1550   30.7660 O.3   4353  TIP4342    -0.4105
  13221 H1          4.4030   -9.8270   31.1050 H     4353  TIP4342     0.2052
  13222 H2          5.1330  -10.1310   29.8140 H     4353  TIP4342     0.2052
  13223 OH2       -27.5490   -5.5290   -2.2170 O.3   4354  TIP4343    -0.4105
  13224 H1        -27.7240   -6.1900   -2.8870 H     4354  TIP4343     0.2052
  13225 H2        -27.2920   -4.7500   -2.7100 H     4354  TIP4343     0.2052
  13226 OH2        25.1750    7.6100   10.1740 O.3   4355  TIP4344    -0.4105
  13227 H1         25.9400    8.1380    9.9460 H     4355  TIP4344     0.2052
  13228 H2         25.5400    6.7760   10.4710 H     4355  TIP4344     0.2052
  13229 OH2        -1.4790  -10.0800   20.9760 O.3   4356  TIP4345    -0.4105
  13230 H1         -0.8990  -10.6680   20.4910 H     4356  TIP4345     0.2052
  13231 H2         -2.2430  -10.6180   21.1870 H     4356  TIP4345     0.2052
  13232 OH2        -4.1670   13.6970   19.8480 O.3   4357  TIP4346    -0.4105
  13233 H1         -3.6580   12.8890   19.9060 H     4357  TIP4346     0.2052
  13234 H2         -4.8760   13.4910   19.2380 H     4357  TIP4346     0.2052
  13235 OH2         0.8810  -15.5920  -10.3740 O.3   4358  TIP4347    -0.4105
  13236 H1          0.8150  -14.8050   -9.8320 H     4358  TIP4347     0.2052
  13237 H2          0.8770  -15.2650  -11.2730 H     4358  TIP4347     0.2052
  13238 OH2       -30.6370   13.6930    1.2560 O.3   4359  TIP4348    -0.4105
  13239 H1        -30.8180   13.9260    2.1670 H     4359  TIP4348     0.2052
  13240 H2        -30.2660   14.4890    0.8750 H     4359  TIP4348     0.2052
  13241 OH2        10.2280   -2.6470  -23.3020 O.3   4360  TIP4349    -0.4105
  13242 H1          9.2910   -2.5320  -23.4620 H     4360  TIP4349     0.2052
  13243 H2         10.2730   -3.2430  -22.5550 H     4360  TIP4349     0.2052
  13244 OH2        -6.8000  -28.5820  -15.1520 O.3   4361  TIP4350    -0.4105
  13245 H1         -6.9600  -29.2320  -15.8370 H     4361  TIP4350     0.2052
  13246 H2         -6.0990  -28.9610  -14.6210 H     4361  TIP4350     0.2052
  13247 OH2         1.9850   -1.8820   27.9840 O.3   4362  TIP4351    -0.4105
  13248 H1          2.8730   -2.2170   28.1150 H     4362  TIP4351     0.2052
  13249 H2          2.1020   -1.0890   27.4620 H     4362  TIP4351     0.2052
  13250 OH2       -20.3050   22.3870   -6.9470 O.3   4363  TIP4352    -0.4105
  13251 H1        -19.7200   23.0700   -7.2760 H     4363  TIP4352     0.2052
  13252 H2        -21.1760   22.6530   -7.2420 H     4363  TIP4352     0.2052
  13253 OH2        -5.4130    0.0250  -32.3560 O.3   4364  TIP4353    -0.4105
  13254 H1         -5.7860    0.0360  -33.2370 H     4364  TIP4353     0.2052
  13255 H2         -4.5490    0.4250  -32.4560 H     4364  TIP4353     0.2052
  13256 OH2         0.2760    8.1920  -30.8080 O.3   4365  TIP4354    -0.4105
  13257 H1         -0.0310    8.6750  -30.0410 H     4365  TIP4354     0.2052
  13258 H2          1.2200    8.3460  -30.8260 H     4365  TIP4354     0.2052
  13259 OH2        18.3350    6.5410  -20.7080 O.3   4366  TIP4355    -0.4105
  13260 H1         17.5260    6.4690  -20.2010 H     4366  TIP4355     0.2052
  13261 H2         18.7290    5.6700  -20.6580 H     4366  TIP4355     0.2052
  13262 OH2         7.2430  -18.5260   -1.9830 O.3   4367  TIP4356    -0.4105
  13263 H1          7.4640  -18.5600   -1.0520 H     4367  TIP4356     0.2052
  13264 H2          7.8740  -17.9110   -2.3570 H     4367  TIP4356     0.2052
  13265 OH2       -32.5670   -9.8910   15.6310 O.3   4368  TIP4357    -0.4105
  13266 H1        -33.2720   -9.9980   14.9930 H     4368  TIP4357     0.2052
  13267 H2        -32.6060  -10.6830   16.1680 H     4368  TIP4357     0.2052
  13268 OH2       -15.0790   -9.3760   23.3480 O.3   4369  TIP4358    -0.4105
  13269 H1        -14.9920   -9.0420   24.2400 H     4369  TIP4358     0.2052
  13270 H2        -14.2180   -9.7400   23.1420 H     4369  TIP4358     0.2052
  13271 OH2        -7.0270  -15.2920    8.9920 O.3   4370  TIP4359    -0.4105
  13272 H1         -7.1750  -15.8920    8.2600 H     4370  TIP4359     0.2052
  13273 H2         -6.7400  -15.8560    9.7100 H     4370  TIP4359     0.2052
  13274 OH2        -3.3680  -10.1260  -16.0470 O.3   4371  TIP4360    -0.4105
  13275 H1         -3.8880   -9.3750  -16.3340 H     4371  TIP4360     0.2052
  13276 H2         -3.1340  -10.5790  -16.8570 H     4371  TIP4360     0.2052
  13277 OH2         2.4930   -7.5570   36.7060 O.3   4372  TIP4361    -0.4105
  13278 H1          3.3330   -8.0130   36.7670 H     4372  TIP4361     0.2052
  13279 H2          2.7240   -6.6280   36.7090 H     4372  TIP4361     0.2052
  13280 OH2         9.5470  -25.8510   -5.4790 O.3   4373  TIP4362    -0.4105
  13281 H1          9.9070  -26.1560   -4.6450 H     4373  TIP4362     0.2052
  13282 H2          9.3240  -24.9340   -5.3230 H     4373  TIP4362     0.2052
  13283 OH2        10.0010   -3.7190    7.8020 O.3   4374  TIP4363    -0.4105
  13284 H1          9.8730   -4.5360    7.3200 H     4374  TIP4363     0.2052
  13285 H2          9.8690   -3.0320    7.1490 H     4374  TIP4363     0.2052
  13286 OH2       -26.9010   15.0810    4.4830 O.3   4375  TIP4364    -0.4105
  13287 H1        -27.4770   14.3170    4.4670 H     4375  TIP4364     0.2052
  13288 H2        -26.6530   15.2150    3.5680 H     4375  TIP4364     0.2052
  13289 OH2        16.7370  -28.0700    5.4660 O.3   4376  TIP4365    -0.4105
  13290 H1         16.3500  -28.9030    5.7350 H     4376  TIP4365     0.2052
  13291 H2         16.3460  -27.8880    4.6110 H     4376  TIP4365     0.2052
  13292 OH2       -26.2360    4.1330   -4.8710 O.3   4377  TIP4366    -0.4105
  13293 H1        -25.3660    4.3480   -5.2080 H     4377  TIP4366     0.2052
  13294 H2        -26.2200    4.4290   -3.9610 H     4377  TIP4366     0.2052
  13295 OH2        17.4380    7.2590  -15.1720 O.3   4378  TIP4367    -0.4105
  13296 H1         16.5180    7.2440  -14.9100 H     4378  TIP4367     0.2052
  13297 H2         17.5660    6.4370  -15.6460 H     4378  TIP4367     0.2052
  13298 OH2        -8.4580   26.5790  -12.3130 O.3   4379  TIP4368    -0.4105
  13299 H1         -9.0990   26.8150  -11.6430 H     4379  TIP4368     0.2052
  13300 H2         -8.9620   26.1000  -12.9700 H     4379  TIP4368     0.2052
  13301 OH2       -12.0890   18.8820  -14.8560 O.3   4380  TIP4369    -0.4105
  13302 H1        -12.4860   18.1430  -14.3950 H     4380  TIP4369     0.2052
  13303 H2        -12.1140   18.6310  -15.7790 H     4380  TIP4369     0.2052
  13304 OH2       -28.9490   24.6100    4.1650 O.3   4381  TIP4370    -0.4105
  13305 H1        -28.4580   23.9290    3.7060 H     4381  TIP4370     0.2052
  13306 H2        -28.6900   25.4240    3.7340 H     4381  TIP4370     0.2052
  13307 OH2        22.5800    5.6900   15.9750 O.3   4382  TIP4371    -0.4105
  13308 H1         21.9770    5.1070   16.4370 H     4382  TIP4371     0.2052
  13309 H2         23.1460    5.1030   15.4740 H     4382  TIP4371     0.2052
  13310 OH2        30.2890    7.8130    3.5060 O.3   4383  TIP4372    -0.4105
  13311 H1         29.3780    8.0660    3.3600 H     4383  TIP4372     0.2052
  13312 H2         30.6430    7.6710    2.6280 H     4383  TIP4372     0.2052
  13313 OH2       -21.2530   15.3900    1.9890 O.3   4384  TIP4373    -0.4105
  13314 H1        -20.6530   14.9910    2.6200 H     4384  TIP4373     0.2052
  13315 H2        -21.6700   14.6470    1.5520 H     4384  TIP4373     0.2052
  13316 OH2        12.4410  -12.9290  -15.7120 O.3   4385  TIP4374    -0.4105
  13317 H1         12.1240  -12.0300  -15.6230 H     4385  TIP4374     0.2052
  13318 H2         12.3810  -13.2930  -14.8290 H     4385  TIP4374     0.2052
  13319 OH2        -0.1220   -7.5810   35.7470 O.3   4386  TIP4375    -0.4105
  13320 H1          0.6730   -7.8170   36.2240 H     4386  TIP4375     0.2052
  13321 H2         -0.6480   -7.0960   36.3830 H     4386  TIP4375     0.2052
  13322 OH2        -8.0650   12.5960   10.0390 O.3   4387  TIP4376    -0.4105
  13323 H1         -7.2580   13.0930   10.1710 H     4387  TIP4376     0.2052
  13324 H2         -8.6460   12.8900   10.7410 H     4387  TIP4376     0.2052
  13325 OH2        23.5890  -11.2560    7.1920 O.3   4388  TIP4377    -0.4105
  13326 H1         22.9910  -11.8820    6.7850 H     4388  TIP4377     0.2052
  13327 H2         23.8830  -10.7000    6.4700 H     4388  TIP4377     0.2052
  13328 OH2        17.6070   -9.9750   17.1760 O.3   4389  TIP4378    -0.4105
  13329 H1         17.2370   -9.2710   16.6430 H     4389  TIP4378     0.2052
  13330 H2         18.5320  -10.0000   16.9310 H     4389  TIP4378     0.2052
  13331 OH2         9.4890  -27.4610    9.7890 O.3   4390  TIP4379    -0.4105
  13332 H1          8.9600  -27.3040    9.0070 H     4390  TIP4379     0.2052
  13333 H2          9.7530  -26.5880   10.0790 H     4390  TIP4379     0.2052
  13334 OH2        -0.4340  -15.5010   23.6330 O.3   4391  TIP4380    -0.4105
  13335 H1          0.1980  -15.6630   24.3340 H     4391  TIP4380     0.2052
  13336 H2         -0.4580  -14.5480   23.5460 H     4391  TIP4380     0.2052
  13337 OH2       -12.3610  -17.4780    6.7710 O.3   4392  TIP4381    -0.4105
  13338 H1        -12.1170  -17.4480    5.8460 H     4392  TIP4381     0.2052
  13339 H2        -13.3170  -17.5200    6.7660 H     4392  TIP4381     0.2052
  13340 OH2        -2.8080   24.2150  -12.9780 O.3   4393  TIP4382    -0.4105
  13341 H1         -2.2140   24.5530  -12.3080 H     4393  TIP4382     0.2052
  13342 H2         -2.6990   24.8110  -13.7180 H     4393  TIP4382     0.2052
  13343 OH2       -15.2510  -17.3040   10.1430 O.3   4394  TIP4383    -0.4105
  13344 H1        -15.7510  -16.7990    9.5020 H     4394  TIP4383     0.2052
  13345 H2        -14.9970  -16.6640   10.8080 H     4394  TIP4383     0.2052
  13346 OH2       -13.5790   16.8460   -0.9750 O.3   4395  TIP4384    -0.4105
  13347 H1        -14.1330   16.7130   -1.7440 H     4395  TIP4384     0.2052
  13348 H2        -14.1060   16.5270   -0.2420 H     4395  TIP4384     0.2052
  13349 OH2         6.1810    0.9590  -17.0710 O.3   4396  TIP4385    -0.4105
  13350 H1          5.6630    0.1650  -16.9410 H     4396  TIP4385     0.2052
  13351 H2          6.6190    0.8250  -17.9110 H     4396  TIP4385     0.2052
  13352 OH2         8.2660   -9.0410   27.5560 O.3   4397  TIP4386    -0.4105
  13353 H1          9.1030   -9.0510   28.0210 H     4397  TIP4386     0.2052
  13354 H2          7.6090   -8.9570   28.2470 H     4397  TIP4386     0.2052
  13355 OH2         7.2770   10.0910   -3.8720 O.3   4398  TIP4387    -0.4105
  13356 H1          6.9830   10.6820   -3.1790 H     4398  TIP4387     0.2052
  13357 H2          8.2300   10.0690   -3.7810 H     4398  TIP4387     0.2052
  13358 OH2       -20.7830  -13.2300  -15.5080 O.3   4399  TIP4388    -0.4105
  13359 H1        -20.6170  -13.9890  -14.9480 H     4399  TIP4388     0.2052
  13360 H2        -19.9730  -12.7220  -15.4690 H     4399  TIP4388     0.2052
  13361 OH2       -22.4300   19.0880   -4.6470 O.3   4400  TIP4389    -0.4105
  13362 H1        -23.1100   18.8140   -4.0320 H     4400  TIP4389     0.2052
  13363 H2        -22.7690   19.8940   -5.0370 H     4400  TIP4389     0.2052
  13364 OH2        -2.1790  -10.9410    9.8350 O.3   4401  TIP4390    -0.4105
  13365 H1         -2.5710  -11.7550    9.5190 H     4401  TIP4390     0.2052
  13366 H2         -2.4010  -10.2930    9.1670 H     4401  TIP4390     0.2052
  13367 OH2        21.3190  -32.6250    2.5790 O.3   4402  TIP4391    -0.4105
  13368 H1         21.7010  -32.6440    1.7010 H     4402  TIP4391     0.2052
  13369 H2         20.5720  -33.2200    2.5290 H     4402  TIP4391     0.2052
  13370 OH2        13.1100    7.6790   11.9310 O.3   4403  TIP4392    -0.4105
  13371 H1         12.2210    7.9560   12.1500 H     4403  TIP4392     0.2052
  13372 H2         13.2550    6.8950   12.4610 H     4403  TIP4392     0.2052
  13373 OH2       -12.6180    9.8290    1.3570 O.3   4404  TIP4393    -0.4105
  13374 H1        -12.2040    8.9770    1.2210 H     4404  TIP4393     0.2052
  13375 H2        -12.1030   10.2390    2.0510 H     4404  TIP4393     0.2052
  13376 OH2        14.5090   13.9560   -6.1710 O.3   4405  TIP4394    -0.4105
  13377 H1         14.8610   13.9530   -7.0620 H     4405  TIP4394     0.2052
  13378 H2         14.4900   14.8800   -5.9240 H     4405  TIP4394     0.2052
  13379 OH2        -3.8700  -18.6050  -12.3390 O.3   4406  TIP4395    -0.4105
  13380 H1         -4.0610  -18.0550  -11.5790 H     4406  TIP4395     0.2052
  13381 H2         -3.9890  -19.5000  -12.0230 H     4406  TIP4395     0.2052
  13382 OH2         3.4200   16.3100   16.1590 O.3   4407  TIP4396    -0.4105
  13383 H1          3.0540   16.9780   15.5800 H     4407  TIP4396     0.2052
  13384 H2          4.2830   16.6480   16.4000 H     4407  TIP4396     0.2052
  13385 OH2        34.6190    4.3800   -8.8410 O.3   4408  TIP4397    -0.4105
  13386 H1         33.8880    4.9540   -9.0680 H     4408  TIP4397     0.2052
  13387 H2         34.2520    3.4970   -8.8800 H     4408  TIP4397     0.2052
  13388 OH2       -15.2820    1.7350    8.1510 O.3   4409  TIP4398    -0.4105
  13389 H1        -15.3970    1.2870    8.9890 H     4409  TIP4398     0.2052
  13390 H2        -14.5310    1.2990    7.7480 H     4409  TIP4398     0.2052
  13391 OH2       -15.3350   28.8580   10.7410 O.3   4410  TIP4399    -0.4105
  13392 H1        -15.0370   29.5580   10.1600 H     4410  TIP4399     0.2052
  13393 H2        -14.6050   28.2410   10.7680 H     4410  TIP4399     0.2052
  13394 OH2        11.0040   17.9740  -15.3180 O.3   4411  TIP4400    -0.4105
  13395 H1         11.0040   18.9250  -15.4280 H     4411  TIP4400     0.2052
  13396 H2         11.4970   17.8260  -14.5110 H     4411  TIP4400     0.2052
  13397 OH2        12.9140    1.2530  -11.9630 O.3   4412  TIP4401    -0.4105
  13398 H1         12.3500    2.0170  -12.0880 H     4412  TIP4401     0.2052
  13399 H2         12.3910    0.6540  -11.4300 H     4412  TIP4401     0.2052
  13400 OH2         6.0010   20.9800   26.8760 O.3   4413  TIP4402    -0.4105
  13401 H1          6.6290   20.8070   27.5770 H     4413  TIP4402     0.2052
  13402 H2          5.1980   20.5440   27.1600 H     4413  TIP4402     0.2052
  13403 OH2        22.9560    5.6490    0.4070 O.3   4414  TIP4403    -0.4105
  13404 H1         22.4780    5.8200   -0.4040 H     4414  TIP4403     0.2052
  13405 H2         23.5280    6.4090    0.5140 H     4414  TIP4403     0.2052
  13406 OH2        -3.6280   10.1200  -27.6930 O.3   4415  TIP4404    -0.4105
  13407 H1         -3.5880   10.3710  -26.7700 H     4415  TIP4404     0.2052
  13408 H2         -4.3570    9.5020  -27.7420 H     4415  TIP4404     0.2052
  13409 OH2        -0.5700   11.0510   16.9050 O.3   4416  TIP4405    -0.4105
  13410 H1         -0.5990   10.4630   16.1500 H     4416  TIP4405     0.2052
  13411 H2         -0.4280   10.4720   17.6550 H     4416  TIP4405     0.2052
  13412 OH2         2.1330    3.4240   23.0830 O.3   4417  TIP4406    -0.4105
  13413 H1          1.8150    4.0400   23.7420 H     4417  TIP4406     0.2052
  13414 H2          3.0340    3.6990   22.9110 H     4417  TIP4406     0.2052
  13415 OH2        13.0170    2.7330   20.0690 O.3   4418  TIP4407    -0.4105
  13416 H1         12.8920    3.4970   20.6320 H     4418  TIP4407     0.2052
  13417 H2         12.8840    1.9840   20.6490 H     4418  TIP4407     0.2052
  13418 OH2       -31.8250   -5.0850    7.9110 O.3   4419  TIP4408    -0.4105
  13419 H1        -32.6950   -5.4090    7.6780 H     4419  TIP4408     0.2052
  13420 H2        -31.9790   -4.1970    8.2350 H     4419  TIP4408     0.2052
  13421 OH2        10.8300    2.1590  -21.3760 O.3   4420  TIP4409    -0.4105
  13422 H1         10.3820    2.7600  -20.7800 H     4420  TIP4409     0.2052
  13423 H2         11.7510    2.4130  -21.3260 H     4420  TIP4409     0.2052
  13424 OH2         6.4350   18.0050   28.6140 O.3   4421  TIP4410    -0.4105
  13425 H1          6.1620   17.3340   27.9890 H     4421  TIP4410     0.2052
  13426 H2          7.0970   17.5740   29.1550 H     4421  TIP4410     0.2052
  13427 OH2         4.6340   -2.4410   17.3210 O.3   4422  TIP4411    -0.4105
  13428 H1          4.9950   -2.7250   18.1610 H     4422  TIP4411     0.2052
  13429 H2          3.9390   -3.0720   17.1330 H     4422  TIP4411     0.2052
  13430 OH2       -22.1160    6.1890    0.2390 O.3   4423  TIP4412    -0.4105
  13431 H1        -21.6260    6.9370   -0.1010 H     4423  TIP4412     0.2052
  13432 H2        -21.9460    6.1990    1.1810 H     4423  TIP4412     0.2052
  13433 OH2         9.1120   -2.5520   -4.4620 O.3   4424  TIP4413    -0.4105
  13434 H1         10.0430   -2.7050   -4.6230 H     4424  TIP4413     0.2052
  13435 H2          8.9980   -1.6100   -4.5900 H     4424  TIP4413     0.2052
  13436 OH2        22.3910  -19.2870    4.4530 O.3   4425  TIP4414    -0.4105
  13437 H1         22.1000  -19.4490    3.5560 H     4425  TIP4414     0.2052
  13438 H2         21.7900  -19.7980    4.9960 H     4425  TIP4414     0.2052
  13439 OH2        25.7130    5.2410    7.2660 O.3   4426  TIP4415    -0.4105
  13440 H1         25.4070    4.7530    8.0310 H     4426  TIP4415     0.2052
  13441 H2         26.4910    4.7650    6.9740 H     4426  TIP4415     0.2052
  13442 OH2        13.7540   14.7950   13.9220 O.3   4427  TIP4416    -0.4105
  13443 H1         14.0620   15.3940   14.6030 H     4427  TIP4416     0.2052
  13444 H2         12.8670   14.5590   14.1930 H     4427  TIP4416     0.2052
  13445 OH2        -8.2740   -1.3710   14.1730 O.3   4428  TIP4417    -0.4105
  13446 H1         -7.6280   -1.9920   13.8350 H     4428  TIP4417     0.2052
  13447 H2         -7.8400   -0.5200   14.1190 H     4428  TIP4417     0.2052
  13448 OH2         3.1390    2.4130    9.7490 O.3   4429  TIP4418    -0.4105
  13449 H1          3.0920    2.1700    8.8240 H     4429  TIP4418     0.2052
  13450 H2          3.9870    2.0780   10.0420 H     4429  TIP4418     0.2052
  13451 OH2       -11.6580   24.2710    9.7330 O.3   4430  TIP4419    -0.4105
  13452 H1        -11.2210   23.8510   10.4740 H     4430  TIP4419     0.2052
  13453 H2        -10.9470   24.4950    9.1310 H     4430  TIP4419     0.2052
  13454 OH2       -12.5840  -21.3060  -11.2560 O.3   4431  TIP4420    -0.4105
  13455 H1        -12.1580  -22.1110  -10.9620 H     4431  TIP4420     0.2052
  13456 H2        -13.2990  -21.6030  -11.8190 H     4431  TIP4420     0.2052
  13457 OH2        14.6140   17.4070   20.1870 O.3   4432  TIP4421    -0.4105
  13458 H1         14.0130   16.7560   20.5490 H     4432  TIP4421     0.2052
  13459 H2         14.1090   17.8450   19.5020 H     4432  TIP4421     0.2052
  13460 OH2       -10.1160  -16.7950   30.5780 O.3   4433  TIP4422    -0.4105
  13461 H1        -10.1570  -17.0790   31.4910 H     4433  TIP4422     0.2052
  13462 H2         -9.7560  -17.5470   30.1080 H     4433  TIP4422     0.2052
  13463 OH2       -32.4500    6.7590    8.2300 O.3   4434  TIP4423    -0.4105
  13464 H1        -31.6960    6.9280    8.7960 H     4434  TIP4423     0.2052
  13465 H2        -32.6570    7.6110    7.8450 H     4434  TIP4423     0.2052
  13466 OH2       -15.6860    5.2580   11.7060 O.3   4435  TIP4424    -0.4105
  13467 H1        -15.2850    5.0820   10.8550 H     4435  TIP4424     0.2052
  13468 H2        -16.5830    4.9360   11.6210 H     4435  TIP4424     0.2052
  13469 OH2       -27.2720  -10.8280    3.5410 O.3   4436  TIP4425    -0.4105
  13470 H1        -26.8850  -10.0000    3.2600 H     4436  TIP4425     0.2052
  13471 H2        -26.5370  -11.3290    3.8940 H     4436  TIP4425     0.2052
  13472 OH2       -29.4300   -8.1460    9.4520 O.3   4437  TIP4426    -0.4105
  13473 H1        -29.2940   -8.1900    8.5060 H     4437  TIP4426     0.2052
  13474 H2        -30.3490   -8.3830    9.5740 H     4437  TIP4426     0.2052
  13475 OH2       -22.2560   -7.0560    0.3860 O.3   4438  TIP4427    -0.4105
  13476 H1        -22.9150   -6.3650    0.3250 H     4438  TIP4427     0.2052
  13477 H2        -22.6970   -7.8380    0.0530 H     4438  TIP4427     0.2052
  13478 OH2       -20.6310   15.4190    4.9720 O.3   4439  TIP4428    -0.4105
  13479 H1        -21.1220   14.9520    5.6480 H     4439  TIP4428     0.2052
  13480 H2        -20.3230   16.2150    5.4060 H     4439  TIP4428     0.2052
  13481 OH2        19.0770   14.4090   20.4500 O.3   4440  TIP4429    -0.4105
  13482 H1         19.0850   14.8520   21.2990 H     4440  TIP4429     0.2052
  13483 H2         18.1600   14.1730   20.3120 H     4440  TIP4429     0.2052
  13484 OH2         2.3040  -17.0100    0.3900 O.3   4441  TIP4430    -0.4105
  13485 H1          1.8040  -17.7530    0.0510 H     4441  TIP4430     0.2052
  13486 H2          3.0010  -16.8760   -0.2520 H     4441  TIP4430     0.2052
  13487 OH2       -12.7910    1.0600  -13.9840 O.3   4442  TIP4431    -0.4105
  13488 H1        -12.5830    1.0300  -14.9180 H     4442  TIP4431     0.2052
  13489 H2        -12.0780    1.5670  -13.5960 H     4442  TIP4431     0.2052
  13490 OH2        -9.5130   11.1160  -14.6670 O.3   4443  TIP4432    -0.4105
  13491 H1         -9.0920   10.4720  -14.0960 H     4443  TIP4432     0.2052
  13492 H2        -10.3920   11.2200  -14.3040 H     4443  TIP4432     0.2052
  13493 OH2        25.6080  -15.2360   -7.1070 O.3   4444  TIP4433    -0.4105
  13494 H1         26.4310  -15.4700   -7.5360 H     4444  TIP4433     0.2052
  13495 H2         25.7350  -14.3310   -6.8210 H     4444  TIP4433     0.2052
  13496 OH2        -4.8850  -16.7740   -8.6120 O.3   4445  TIP4434    -0.4105
  13497 H1         -4.1640  -17.4040   -8.6050 H     4445  TIP4434     0.2052
  13498 H2         -5.5570  -17.1850   -9.1580 H     4445  TIP4434     0.2052
  13499 OH2        14.9280  -34.3290   -0.2540 O.3   4446  TIP4435    -0.4105
  13500 H1         14.3430  -33.7290   -0.7160 H     4446  TIP4435     0.2052
  13501 H2         15.0770  -35.0430   -0.8740 H     4446  TIP4435     0.2052
  13502 OH2        17.8120   -7.4440    4.7320 O.3   4447  TIP4436    -0.4105
  13503 H1         17.5650   -8.3680    4.6770 H     4447  TIP4436     0.2052
  13504 H2         17.4320   -7.1420    5.5570 H     4447  TIP4436     0.2052
  13505 OH2       -11.6720    4.7420   -0.5640 O.3   4448  TIP4437    -0.4105
  13506 H1        -11.0160    4.0470   -0.5020 H     4448  TIP4437     0.2052
  13507 H2        -11.3150    5.3530   -1.2080 H     4448  TIP4437     0.2052
  13508 OH2         9.8820    6.3080   32.3060 O.3   4449  TIP4438    -0.4105
  13509 H1          9.5450    7.1980   32.4170 H     4449  TIP4438     0.2052
  13510 H2         10.6800    6.2860   32.8330 H     4449  TIP4438     0.2052
  13511 OH2        14.8870   -4.0440   13.7200 O.3   4450  TIP4439    -0.4105
  13512 H1         14.1210   -4.1890   14.2760 H     4450  TIP4439     0.2052
  13513 H2         15.2710   -3.2310   14.0480 H     4450  TIP4439     0.2052
  13514 OH2         1.3110   -1.4760  -11.6820 O.3   4451  TIP4440    -0.4105
  13515 H1          0.9140   -0.6060  -11.6350 H     4451  TIP4440     0.2052
  13516 H2          1.9070   -1.5090  -10.9340 H     4451  TIP4440     0.2052
  13517 OH2        10.9030   20.9800   -1.8270 O.3   4452  TIP4441    -0.4105
  13518 H1         11.0000   21.6910   -1.1930 H     4452  TIP4441     0.2052
  13519 H2         11.4310   21.2540   -2.5770 H     4452  TIP4441     0.2052
  13520 OH2        -3.0560  -22.9590  -12.5130 O.3   4453  TIP4442    -0.4105
  13521 H1         -2.2700  -23.0270  -13.0560 H     4453  TIP4442     0.2052
  13522 H2         -2.7530  -22.5480  -11.7030 H     4453  TIP4442     0.2052
  13523 OH2        -6.4050  -22.8810    5.5580 O.3   4454  TIP4443    -0.4105
  13524 H1         -6.4860  -21.9500    5.3510 H     4454  TIP4443     0.2052
  13525 H2         -7.1990  -23.2760    5.1970 H     4454  TIP4443     0.2052
  13526 OH2        26.4500   10.8600   -8.4630 O.3   4455  TIP4444    -0.4105
  13527 H1         26.1920   11.0300   -9.3690 H     4455  TIP4444     0.2052
  13528 H2         26.5800    9.9130   -8.4250 H     4455  TIP4444     0.2052
  13529 OH2         3.3250   18.8700  -19.9120 O.3   4456  TIP4445    -0.4105
  13530 H1          3.9530   18.2030  -20.1890 H     4456  TIP4445     0.2052
  13531 H2          3.2170   18.7240  -18.9730 H     4456  TIP4445     0.2052
  13532 OH2       -16.9860  -22.1940   -9.6710 O.3   4457  TIP4446    -0.4105
  13533 H1        -16.9750  -22.8210   -8.9480 H     4457  TIP4446     0.2052
  13534 H2        -17.7490  -22.4430  -10.1930 H     4457  TIP4446     0.2052
  13535 OH2        17.4930  -16.3160   -0.2880 O.3   4458  TIP4447    -0.4105
  13536 H1         18.0880  -16.7160   -0.9230 H     4458  TIP4447     0.2052
  13537 H2         17.5260  -15.3800   -0.4850 H     4458  TIP4447     0.2052
  13538 OH2        -2.4760   -7.9890   -5.9300 O.3   4459  TIP4448    -0.4105
  13539 H1         -2.6770   -8.3390   -5.0620 H     4459  TIP4448     0.2052
  13540 H2         -2.4930   -7.0390   -5.8150 H     4459  TIP4448     0.2052
  13541 OH2       -21.2260  -21.4330  -16.5030 O.3   4460  TIP4449    -0.4105
  13542 H1        -20.6980  -21.9050  -17.1470 H     4460  TIP4449     0.2052
  13543 H2        -21.3950  -22.0760  -15.8150 H     4460  TIP4449     0.2052
  13544 OH2       -37.0320   -6.1150    4.9520 O.3   4461  TIP4450    -0.4105
  13545 H1        -37.9150   -6.4530    4.8070 H     4461  TIP4450     0.2052
  13546 H2        -36.4970   -6.5450    4.2850 H     4461  TIP4450     0.2052
  13547 OH2         7.9720    1.8610    5.8590 O.3   4462  TIP4451    -0.4105
  13548 H1          8.5980    1.8460    5.1350 H     4462  TIP4451     0.2052
  13549 H2          7.3120    1.2110    5.6180 H     4462  TIP4451     0.2052
  13550 OH2         3.7120  -11.1690  -21.5260 O.3   4463  TIP4452    -0.4105
  13551 H1          4.4900  -10.9770  -21.0010 H     4463  TIP4452     0.2052
  13552 H2          3.5550  -10.3660  -22.0230 H     4463  TIP4452     0.2052
  13553 OH2       -11.0710    9.1090   10.0810 O.3   4464  TIP4453    -0.4105
  13554 H1        -11.3330    8.3250   10.5630 H     4464  TIP4453     0.2052
  13555 H2        -11.8690    9.3980    9.6390 H     4464  TIP4453     0.2052
  13556 OH2        11.0930    3.0590  -14.3180 O.3   4465  TIP4454    -0.4105
  13557 H1         10.7860    2.1530  -14.2890 H     4465  TIP4454     0.2052
  13558 H2         11.2200    3.2990  -13.4000 H     4465  TIP4454     0.2052
  13559 OH2        10.0480   16.6980  -27.1570 O.3   4466  TIP4455    -0.4105
  13560 H1          9.4520   15.9490  -27.1640 H     4466  TIP4455     0.2052
  13561 H2         10.8830   16.3380  -26.8600 H     4466  TIP4455     0.2052
  13562 OH2        23.5550   13.0840   12.6970 O.3   4467  TIP4456    -0.4105
  13563 H1         23.8810   13.6000   13.4350 H     4467  TIP4456     0.2052
  13564 H2         22.9460   12.4600   13.0910 H     4467  TIP4456     0.2052
  13565 OH2         9.9950   -5.6040    3.7830 O.3   4468  TIP4457    -0.4105
  13566 H1         10.7540   -5.2000    4.2030 H     4468  TIP4457     0.2052
  13567 H2         10.1880   -5.5620    2.8470 H     4468  TIP4457     0.2052
  13568 OH2        14.1590    7.0650    3.0950 O.3   4469  TIP4458    -0.4105
  13569 H1         13.5590    7.0440    2.3490 H     4469  TIP4458     0.2052
  13570 H2         13.5970    6.9360    3.8590 H     4469  TIP4458     0.2052
  13571 OH2       -10.1390  -19.5280   -6.7190 O.3   4470  TIP4459    -0.4105
  13572 H1         -9.7770  -20.4150   -6.7340 H     4470  TIP4459     0.2052
  13573 H2         -9.5910  -19.0350   -7.3300 H     4470  TIP4459     0.2052
  13574 OH2        -3.7890   -8.6350   11.2860 O.3   4471  TIP4460    -0.4105
  13575 H1         -3.7420   -8.9520   10.3840 H     4471  TIP4460     0.2052
  13576 H2         -3.6230   -7.6940   11.2190 H     4471  TIP4460     0.2052
  13577 OH2        -5.0380   -7.7680   20.8430 O.3   4472  TIP4461    -0.4105
  13578 H1         -5.5180   -7.3400   21.5520 H     4472  TIP4461     0.2052
  13579 H2         -5.6610   -8.3950   20.4750 H     4472  TIP4461     0.2052
  13580 OH2        12.6150   11.4120   11.6120 O.3   4473  TIP4462    -0.4105
  13581 H1         13.0600   10.7020   11.1480 H     4473  TIP4462     0.2052
  13582 H2         12.3100   11.0110   12.4260 H     4473  TIP4462     0.2052
  13583 OH2        -1.8360   21.9270  -18.4470 O.3   4474  TIP4463    -0.4105
  13584 H1         -1.7160   21.2590  -17.7720 H     4474  TIP4463     0.2052
  13585 H2         -1.7550   21.4510  -19.2730 H     4474  TIP4463     0.2052
  13586 OH2        21.2070  -30.4890    4.2450 O.3   4475  TIP4464    -0.4105
  13587 H1         20.7860  -31.1370    3.6810 H     4475  TIP4464     0.2052
  13588 H2         20.4820  -29.9740    4.6000 H     4475  TIP4464     0.2052
  13589 OH2        -7.6940  -13.1920  -16.9080 O.3   4476  TIP4465    -0.4105
  13590 H1         -6.9570  -13.0730  -17.5080 H     4476  TIP4465     0.2052
  13591 H2         -7.5410  -12.5530  -16.2120 H     4476  TIP4465     0.2052
  13592 OH2         7.0980   10.4230  -17.8760 O.3   4477  TIP4466    -0.4105
  13593 H1          7.5850   10.4730  -18.6980 H     4477  TIP4466     0.2052
  13594 H2          6.8820   11.3320  -17.6690 H     4477  TIP4466     0.2052
  13595 OH2       -11.9620   24.0910   -4.6360 O.3   4478  TIP4467    -0.4105
  13596 H1        -11.4460   23.4460   -5.1200 H     4478  TIP4467     0.2052
  13597 H2        -12.8430   23.7190   -4.6030 H     4478  TIP4467     0.2052
  13598 OH2        12.6850  -12.5630  -10.7310 O.3   4479  TIP4468    -0.4105
  13599 H1         12.0140  -12.5870  -10.0470 H     4479  TIP4468     0.2052
  13600 H2         12.7760  -11.6340  -10.9440 H     4479  TIP4468     0.2052
  13601 OH2         9.5250   14.8630   23.1570 O.3   4480  TIP4469    -0.4105
  13602 H1          8.6250   14.7320   23.4550 H     4480  TIP4469     0.2052
  13603 H2         10.0480   14.8420   23.9580 H     4480  TIP4469     0.2052
  13604 OH2        18.1820   20.1310    7.2820 O.3   4481  TIP4470    -0.4105
  13605 H1         18.7800   19.3840    7.3210 H     4481  TIP4470     0.2052
  13606 H2         18.5820   20.7250    6.6470 H     4481  TIP4470     0.2052
  13607 OH2       -11.3120   13.9730  -20.6050 O.3   4482  TIP4471    -0.4105
  13608 H1        -10.5760   13.9550  -21.2160 H     4482  TIP4471     0.2052
  13609 H2        -10.9700   13.5700  -19.8060 H     4482  TIP4471     0.2052
  13610 OH2        -6.6330  -13.1060   -0.6250 O.3   4483  TIP4472    -0.4105
  13611 H1         -5.8330  -13.6270   -0.5570 H     4483  TIP4472     0.2052
  13612 H2         -6.9770  -13.0770    0.2680 H     4483  TIP4472     0.2052
  13613 OH2         5.0000  -26.3310    4.0880 O.3   4484  TIP4473    -0.4105
  13614 H1          5.6330  -26.5590    3.4070 H     4484  TIP4473     0.2052
  13615 H2          5.2810  -25.4710    4.3990 H     4484  TIP4473     0.2052
  13616 OH2         0.2890  -21.2470   32.0870 O.3   4485  TIP4474    -0.4105
  13617 H1          0.1400  -21.5130   31.1800 H     4485  TIP4474     0.2052
  13618 H2          0.9570  -20.5640   32.0310 H     4485  TIP4474     0.2052
  13619 OH2        -0.3750  -20.0760  -11.7980 O.3   4486  TIP4475    -0.4105
  13620 H1         -0.9160  -20.6020  -11.2090 H     4486  TIP4475     0.2052
  13621 H2         -0.6410  -19.1730  -11.6240 H     4486  TIP4475     0.2052
  13622 OH2         6.7980   -2.9100   11.3420 O.3   4487  TIP4476    -0.4105
  13623 H1          6.7050   -3.8610   11.3010 H     4487  TIP4476     0.2052
  13624 H2          6.1210   -2.5760   10.7530 H     4487  TIP4476     0.2052
  13625 OH2        -0.3450   25.2290   10.4180 O.3   4488  TIP4477    -0.4105
  13626 H1         -1.1990   25.6610   10.3890 H     4488  TIP4477     0.2052
  13627 H2         -0.2480   24.8300    9.5530 H     4488  TIP4477     0.2052
  13628 OH2         0.9550   22.4890  -24.3750 O.3   4489  TIP4478    -0.4105
  13629 H1          1.2570   23.1750  -24.9710 H     4489  TIP4478     0.2052
  13630 H2          0.1170   22.2070  -24.7400 H     4489  TIP4478     0.2052
  13631 OH2        33.9020    6.9530   -5.9680 O.3   4490  TIP4479    -0.4105
  13632 H1         33.1700    6.5370   -5.5120 H     4490  TIP4479     0.2052
  13633 H2         34.6390    6.3570   -5.8310 H     4490  TIP4479     0.2052
  13634 OH2        22.5050  -18.5550    7.6160 O.3   4491  TIP4480    -0.4105
  13635 H1         23.4000  -18.2370    7.7360 H     4491  TIP4480     0.2052
  13636 H2         22.6090  -19.4180    7.2140 H     4491  TIP4480     0.2052
  13637 OH2        19.0560   16.6420   22.2280 O.3   4492  TIP4481    -0.4105
  13638 H1         18.8880   17.4540   22.7070 H     4492  TIP4481     0.2052
  13639 H2         18.7730   16.8290   21.3330 H     4492  TIP4481     0.2052
  13640 OH2       -18.0230    6.4160   -1.4250 O.3   4493  TIP4482    -0.4105
  13641 H1        -18.5630    6.0460   -0.7270 H     4493  TIP4482     0.2052
  13642 H2        -18.4030    7.2780   -1.5920 H     4493  TIP4482     0.2052
  13643 OH2         0.6230    4.8320   -6.3370 O.3   4494  TIP4483    -0.4105
  13644 H1          0.3690    4.2890   -5.5920 H     4494  TIP4483     0.2052
  13645 H2          0.3160    4.3480   -7.1040 H     4494  TIP4483     0.2052
  13646 OH2        16.3340  -16.6460   15.2250 O.3   4495  TIP4484    -0.4105
  13647 H1         16.3470  -16.3060   16.1200 H     4495  TIP4484     0.2052
  13648 H2         15.4060  -16.7660   15.0260 H     4495  TIP4484     0.2052
  13649 OH2        13.8560  -14.4750    2.7450 O.3   4496  TIP4485    -0.4105
  13650 H1         14.8000  -14.5900    2.6340 H     4496  TIP4485     0.2052
  13651 H2         13.6600  -14.8990    3.5810 H     4496  TIP4485     0.2052
  13652 OH2         1.4160  -26.4890  -12.1360 O.3   4497  TIP4486    -0.4105
  13653 H1          0.6040  -26.2300  -12.5710 H     4497  TIP4486     0.2052
  13654 H2          1.5020  -25.8760  -11.4060 H     4497  TIP4486     0.2052
  13655 OH2       -28.9080    2.7640   10.7330 O.3   4498  TIP4487    -0.4105
  13656 H1        -29.3580    2.4940   11.5330 H     4498  TIP4487     0.2052
  13657 H2        -28.0630    2.3160   10.7690 H     4498  TIP4487     0.2052
  13658 OH2        -8.6390   21.3070  -19.6990 O.3   4499  TIP4488    -0.4105
  13659 H1         -9.2340   20.9900  -20.3800 H     4499  TIP4488     0.2052
  13660 H2         -7.9120   20.6850  -19.7080 H     4499  TIP4488     0.2052
  13661 OH2        26.2360    7.0580  -16.2960 O.3   4500  TIP4489    -0.4105
  13662 H1         27.1430    7.0630  -16.6030 H     4500  TIP4489     0.2052
  13663 H2         25.7730    6.5050  -16.9250 H     4500  TIP4489     0.2052
  13664 OH2         9.3110   26.2690   16.8270 O.3   4501  TIP4490    -0.4105
  13665 H1          9.2920   25.4180   17.2650 H     4501  TIP4490     0.2052
  13666 H2          9.6890   26.0870   15.9670 H     4501  TIP4490     0.2052
  13667 OH2         7.9050  -27.7680   11.9300 O.3   4502  TIP4491    -0.4105
  13668 H1          8.4920  -27.6150   11.1900 H     4502  TIP4491     0.2052
  13669 H2          8.1970  -27.1500   12.6000 H     4502  TIP4491     0.2052
  13670 OH2        -3.4130   -4.2580   20.5540 O.3   4503  TIP4492    -0.4105
  13671 H1         -4.3580   -4.2850   20.4060 H     4503  TIP4492     0.2052
  13672 H2         -3.1770   -3.3390   20.4290 H     4503  TIP4492     0.2052
  13673 OH2        19.2540    1.3880    3.5630 O.3   4504  TIP4493    -0.4105
  13674 H1         18.7800    1.1740    2.7590 H     4504  TIP4493     0.2052
  13675 H2         18.6180    1.8640    4.0970 H     4504  TIP4493     0.2052
  13676 OH2       -12.6080   11.3260   15.0910 O.3   4505  TIP4494    -0.4105
  13677 H1        -11.7380   11.4280   15.4760 H     4505  TIP4494     0.2052
  13678 H2        -13.1180   12.0490   15.4570 H     4505  TIP4494     0.2052
  13679 OH2       -21.1730    8.0840   14.8720 O.3   4506  TIP4495    -0.4105
  13680 H1        -21.7110    7.4090   15.2840 H     4506  TIP4495     0.2052
  13681 H2        -20.2890    7.9200   15.1990 H     4506  TIP4495     0.2052
  13682 OH2        -5.3500    4.9760    6.7420 O.3   4507  TIP4496    -0.4105
  13683 H1         -4.5190    5.3650    7.0130 H     4507  TIP4496     0.2052
  13684 H2         -5.6540    4.4970    7.5130 H     4507  TIP4496     0.2052
  13685 OH2        11.7350    1.7730   22.6440 O.3   4508  TIP4497    -0.4105
  13686 H1         11.9870    0.8510   22.6970 H     4508  TIP4497     0.2052
  13687 H2         11.7760    2.0840   23.5480 H     4508  TIP4497     0.2052
  13688 OH2         3.4060   23.4500   22.6600 O.3   4509  TIP4498    -0.4105
  13689 H1          4.3280   23.3420   22.8940 H     4509  TIP4498     0.2052
  13690 H2          3.0430   22.5650   22.7010 H     4509  TIP4498     0.2052
  13691 OH2        -1.9860   -5.4260  -23.2180 O.3   4510  TIP4499    -0.4105
  13692 H1         -1.9920   -5.1810  -24.1440 H     4510  TIP4499     0.2052
  13693 H2         -1.0840   -5.6950  -23.0470 H     4510  TIP4499     0.2052
  13694 OH2        14.5390   11.2820    1.2270 O.3   4511  TIP4500    -0.4105
  13695 H1         14.3010   10.9210    0.3730 H     4511  TIP4500     0.2052
  13696 H2         15.0610   10.5950    1.6410 H     4511  TIP4500     0.2052
  13697 OH2        10.8680    4.0220   15.8580 O.3   4512  TIP4501    -0.4105
  13698 H1         11.0360    4.0960   14.9180 H     4512  TIP4501     0.2052
  13699 H2         11.5950    4.4910   16.2690 H     4512  TIP4501     0.2052
  13700 OH2       -16.9490   -7.3690   -2.6280 O.3   4513  TIP4502    -0.4105
  13701 H1        -16.7640   -8.1080   -3.2070 H     4513  TIP4502     0.2052
  13702 H2        -17.8470   -7.5180   -2.3290 H     4513  TIP4502     0.2052
  13703 OH2        28.0610   -7.9560   -5.5610 O.3   4514  TIP4503    -0.4105
  13704 H1         27.5660   -7.4490   -6.2040 H     4514  TIP4503     0.2052
  13705 H2         28.1570   -7.3670   -4.8130 H     4514  TIP4503     0.2052
  13706 OH2       -18.1800  -14.9000   25.4840 O.3   4515  TIP4504    -0.4105
  13707 H1        -18.0230  -15.2780   24.6180 H     4515  TIP4504     0.2052
  13708 H2        -18.9980  -15.3020   25.7760 H     4515  TIP4504     0.2052
  13709 OH2         9.3340   17.1360  -24.1880 O.3   4516  TIP4505    -0.4105
  13710 H1          9.0060   17.8050  -24.7890 H     4516  TIP4505     0.2052
  13711 H2          8.8620   16.3410  -24.4320 H     4516  TIP4505     0.2052
  13712 OH2        12.7010    0.1500   -0.9690 O.3   4517  TIP4506    -0.4105
  13713 H1         13.6550    0.2150   -0.9270 H     4517  TIP4506     0.2052
  13714 H2         12.5360   -0.6130   -1.5220 H     4517  TIP4506     0.2052
  13715 OH2       -14.0460   17.3210   -5.4560 O.3   4518  TIP4507    -0.4105
  13716 H1        -14.4360   17.5740   -6.2930 H     4518  TIP4507     0.2052
  13717 H2        -13.2030   16.9340   -5.6920 H     4518  TIP4507     0.2052
  13718 OH2         2.6330   15.9310    5.2760 O.3   4519  TIP4508    -0.4105
  13719 H1          2.7670   15.5440    6.1420 H     4519  TIP4508     0.2052
  13720 H2          1.9730   15.3740    4.8640 H     4519  TIP4508     0.2052
  13721 OH2        -9.9920   -0.9100   12.0460 O.3   4520  TIP4509    -0.4105
  13722 H1         -9.5830   -1.2250   12.8520 H     4520  TIP4509     0.2052
  13723 H2         -9.3490   -1.0970   11.3620 H     4520  TIP4509     0.2052
  13724 OH2        11.0130   17.4850   31.1410 O.3   4521  TIP4510    -0.4105
  13725 H1         10.6740   18.2160   30.6240 H     4521  TIP4510     0.2052
  13726 H2         10.2860   16.8640   31.1850 H     4521  TIP4510     0.2052
  13727 OH2       -26.6640   -6.6810   18.3960 O.3   4522  TIP4511    -0.4105
  13728 H1        -26.9660   -7.1980   19.1430 H     4522  TIP4511     0.2052
  13729 H2        -27.4660   -6.4250   17.9420 H     4522  TIP4511     0.2052
  13730 OH2         4.5650   11.1410   29.9310 O.3   4523  TIP4512    -0.4105
  13731 H1          4.4720   11.1600   30.8830 H     4523  TIP4512     0.2052
  13732 H2          5.4580   11.4460   29.7710 H     4523  TIP4512     0.2052
  13733 OH2        30.8060   -6.8120   -7.6130 O.3   4524  TIP4513    -0.4105
  13734 H1         29.8720   -6.7210   -7.8020 H     4524  TIP4513     0.2052
  13735 H2         30.8390   -7.1060   -6.7030 H     4524  TIP4513     0.2052
  13736 OH2        22.7180   -8.8080    2.7420 O.3   4525  TIP4514    -0.4105
  13737 H1         22.5180   -8.8110    3.6780 H     4525  TIP4514     0.2052
  13738 H2         23.3740   -8.1180    2.6390 H     4525  TIP4514     0.2052
  13739 OH2        -5.6410  -23.4900  -13.7390 O.3   4526  TIP4515    -0.4105
  13740 H1         -4.7350  -23.1970  -13.8380 H     4526  TIP4515     0.2052
  13741 H2         -5.6640  -24.3450  -14.1690 H     4526  TIP4515     0.2052
  13742 OH2       -15.9880    5.8870    6.7990 O.3   4527  TIP4516    -0.4105
  13743 H1        -15.6940    5.4900    7.6180 H     4527  TIP4516     0.2052
  13744 H2        -16.9430    5.8410    6.8380 H     4527  TIP4516     0.2052
  13745 OH2        15.9510    7.3110  -19.3170 O.3   4528  TIP4517    -0.4105
  13746 H1         15.0320    7.2330  -19.0620 H     4528  TIP4517     0.2052
  13747 H2         16.0950    8.2530  -19.4120 H     4528  TIP4517     0.2052
  13748 OH2        -3.3400   19.7520   10.7150 O.3   4529  TIP4518    -0.4105
  13749 H1         -2.8670   20.5220   10.3990 H     4529  TIP4518     0.2052
  13750 H2         -3.3610   19.8570   11.6660 H     4529  TIP4518     0.2052
  13751 OH2         1.2820    2.7680   19.2110 O.3   4530  TIP4519    -0.4105
  13752 H1          2.0660    2.6740   19.7510 H     4530  TIP4519     0.2052
  13753 H2          1.6070    3.0990   18.3730 H     4530  TIP4519     0.2052
  13754 OH2        14.8820   -5.7790   11.6350 O.3   4531  TIP4520    -0.4105
  13755 H1         15.7340   -6.1180   11.3600 H     4531  TIP4520     0.2052
  13756 H2         15.0820   -5.1820   12.3560 H     4531  TIP4520     0.2052
  13757 OH2       -17.1840   15.0720    5.8210 O.3   4532  TIP4521    -0.4105
  13758 H1        -17.8690   14.4110    5.7270 H     4532  TIP4521     0.2052
  13759 H2        -17.0000   15.0950    6.7600 H     4532  TIP4521     0.2052
  13760 OH2         7.7390    2.8240   14.0840 O.3   4533  TIP4522    -0.4105
  13761 H1          7.8570    2.9740   13.1460 H     4533  TIP4522     0.2052
  13762 H2          8.2690    2.0500   14.2710 H     4533  TIP4522     0.2052
  13763 OH2        -8.3570  -24.0190   -0.4410 O.3   4534  TIP4523    -0.4105
  13764 H1         -7.7220  -24.1370   -1.1470 H     4534  TIP4523     0.2052
  13765 H2         -9.1030  -24.5630   -0.6950 H     4534  TIP4523     0.2052
  13766 OH2       -11.1160  -24.1880  -16.7740 O.3   4535  TIP4524    -0.4105
  13767 H1        -10.3620  -23.6030  -16.8480 H     4535  TIP4524     0.2052
  13768 H2        -11.0910  -24.7140  -17.5730 H     4535  TIP4524     0.2052
  13769 OH2        -5.0770   14.8620    6.6270 O.3   4536  TIP4525    -0.4105
  13770 H1         -5.7760   14.5180    7.1840 H     4536  TIP4525     0.2052
  13771 H2         -4.2930   14.8260    7.1740 H     4536  TIP4525     0.2052
  13772 OH2        -4.2110  -14.0750  -19.7740 O.3   4537  TIP4526    -0.4105
  13773 H1         -4.8560  -14.6010  -20.2470 H     4537  TIP4526     0.2052
  13774 H2         -3.6830  -13.6670  -20.4610 H     4537  TIP4526     0.2052
  13775 OH2        -7.8700   20.8620   19.7390 O.3   4538  TIP4527    -0.4105
  13776 H1         -8.6980   21.2160   20.0640 H     4538  TIP4527     0.2052
  13777 H2         -7.9450   20.9130   18.7860 H     4538  TIP4527     0.2052
  13778 OH2         9.3790    4.5020   27.1330 O.3   4539  TIP4528    -0.4105
  13779 H1          8.4880    4.6460   26.8170 H     4539  TIP4528     0.2052
  13780 H2          9.8600    5.2840   26.8620 H     4539  TIP4528     0.2052
  13781 OH2         7.7530  -16.0210  -16.5320 O.3   4540  TIP4529    -0.4105
  13782 H1          7.3840  -16.8300  -16.1770 H     4540  TIP4529     0.2052
  13783 H2          7.0000  -15.5490  -16.8870 H     4540  TIP4529     0.2052
  13784 OH2       -21.8940    8.7740    2.0820 O.3   4541  TIP4530    -0.4105
  13785 H1        -22.8140    8.5120    2.0680 H     4541  TIP4530     0.2052
  13786 H2        -21.5480    8.4780    1.2400 H     4541  TIP4530     0.2052
  13787 OH2         2.8640   22.0350    1.9160 O.3   4542  TIP4531    -0.4105
  13788 H1          3.1450   21.7480    2.7850 H     4542  TIP4531     0.2052
  13789 H2          2.4050   21.2790    1.5500 H     4542  TIP4531     0.2052
  13790 OH2       -18.6240  -11.9810  -21.9660 O.3   4543  TIP4532    -0.4105
  13791 H1        -18.6190  -12.9190  -22.1560 H     4543  TIP4532     0.2052
  13792 H2        -19.4570  -11.8310  -21.5200 H     4543  TIP4532     0.2052
  13793 OH2        17.7040   14.6280   16.4320 O.3   4544  TIP4533    -0.4105
  13794 H1         18.1400   15.3660   16.0050 H     4544  TIP4533     0.2052
  13795 H2         17.8210   13.8970   15.8250 H     4544  TIP4533     0.2052
  13796 OH2        31.3260    9.7940    0.3570 O.3   4545  TIP4534    -0.4105
  13797 H1         31.2520   10.4360   -0.3490 H     4545  TIP4534     0.2052
  13798 H2         30.9520   10.2340    1.1210 H     4545  TIP4534     0.2052
  13799 OH2        -0.1170  -12.7070    3.1440 O.3   4546  TIP4535    -0.4105
  13800 H1         -0.3240  -13.2680    2.3970 H     4546  TIP4535     0.2052
  13801 H2         -0.7780  -12.0150    3.1150 H     4546  TIP4535     0.2052
  13802 OH2         4.9910  -10.9510   25.1250 O.3   4547  TIP4536    -0.4105
  13803 H1          5.4650  -10.6880   24.3360 H     4547  TIP4536     0.2052
  13804 H2          4.8900  -11.8990   25.0410 H     4547  TIP4536     0.2052
  13805 OH2        -3.2160  -13.0690  -26.6780 O.3   4548  TIP4537    -0.4105
  13806 H1         -2.5240  -13.1760  -27.3300 H     4548  TIP4537     0.2052
  13807 H2         -3.7620  -12.3620  -27.0220 H     4548  TIP4537     0.2052
  13808 OH2        15.2100   -7.9390   -9.6100 O.3   4549  TIP4538    -0.4105
  13809 H1         15.7530   -7.1750   -9.8020 H     4549  TIP4538     0.2052
  13810 H2         14.4130   -7.8020  -10.1210 H     4549  TIP4538     0.2052
  13811 OH2        -6.3340  -13.4300  -12.4970 O.3   4550  TIP4539    -0.4105
  13812 H1         -6.1770  -12.5330  -12.7930 H     4550  TIP4539     0.2052
  13813 H2         -5.4600  -13.8160  -12.4300 H     4550  TIP4539     0.2052
  13814 OH2         6.0040  -25.4380   -7.1900 O.3   4551  TIP4540    -0.4105
  13815 H1          6.7640  -25.7210   -7.6980 H     4551  TIP4540     0.2052
  13816 H2          6.3480  -25.2800   -6.3110 H     4551  TIP4540     0.2052
  13817 OH2       -16.0120  -16.3480  -19.7010 O.3   4552  TIP4541    -0.4105
  13818 H1        -15.7780  -17.2730  -19.7860 H     4552  TIP4541     0.2052
  13819 H2        -16.3450  -16.2660  -18.8080 H     4552  TIP4541     0.2052
  13820 OH2         6.7780   10.1600   11.4880 O.3   4553  TIP4542    -0.4105
  13821 H1          5.9060    9.9320   11.1650 H     4553  TIP4542     0.2052
  13822 H2          6.7020   11.0750   11.7590 H     4553  TIP4542     0.2052
  13823 OH2       -33.3020  -13.7840    1.6900 O.3   4554  TIP4543    -0.4105
  13824 H1        -33.6090  -13.8650    0.7870 H     4554  TIP4543     0.2052
  13825 H2        -32.8550  -14.6110    1.8670 H     4554  TIP4543     0.2052
  13826 OH2        -8.8130   -5.0050  -19.1080 O.3   4555  TIP4544    -0.4105
  13827 H1         -7.9390   -5.3940  -19.0790 H     4555  TIP4544     0.2052
  13828 H2         -9.3790   -5.7090  -19.4240 H     4555  TIP4544     0.2052
  13829 OH2         3.4670  -15.2790    2.5760 O.3   4556  TIP4545    -0.4105
  13830 H1          2.9980  -15.7780    1.9080 H     4556  TIP4545     0.2052
  13831 H2          4.0290  -14.6820    2.0800 H     4556  TIP4545     0.2052
  13832 OH2       -11.5270    4.6820   17.4590 O.3   4557  TIP4546    -0.4105
  13833 H1        -11.2050    5.1630   18.2220 H     4557  TIP4546     0.2052
  13834 H2        -10.7370    4.4560   16.9670 H     4557  TIP4546     0.2052
  13835 OH2         0.8740  -13.1630   -9.1440 O.3   4558  TIP4547    -0.4105
  13836 H1          0.0680  -12.8920   -8.7060 H     4558  TIP4547     0.2052
  13837 H2          1.5430  -13.1250   -8.4610 H     4558  TIP4547     0.2052
  13838 OH2        -3.2620    8.6450   17.8040 O.3   4559  TIP4548    -0.4105
  13839 H1         -2.4840    8.1650   17.5210 H     4559  TIP4548     0.2052
  13840 H2         -3.8090    7.9850   18.2310 H     4559  TIP4548     0.2052
  13841 OH2       -10.7540   -5.2060   18.9100 O.3   4560  TIP4549    -0.4105
  13842 H1        -11.4550   -5.7520   18.5530 H     4560  TIP4549     0.2052
  13843 H2        -10.8760   -5.2490   19.8580 H     4560  TIP4549     0.2052
  13844 OH2       -12.1740    8.4240   13.2230 O.3   4561  TIP4550    -0.4105
  13845 H1        -12.2880    7.6570   12.6610 H     4561  TIP4550     0.2052
  13846 H2        -12.9750    8.9330   13.1010 H     4561  TIP4550     0.2052
  13847 OH2        13.5970  -17.2480    3.8840 O.3   4562  TIP4551    -0.4105
  13848 H1         12.8060  -17.3310    4.4170 H     4562  TIP4551     0.2052
  13849 H2         13.4040  -17.7440    3.0890 H     4562  TIP4551     0.2052
  13850 OH2        14.7300   -4.4250   -3.6220 O.3   4563  TIP4552    -0.4105
  13851 H1         14.6770   -3.8440   -4.3800 H     4563  TIP4552     0.2052
  13852 H2         15.1260   -3.8880   -2.9350 H     4563  TIP4552     0.2052
  13853 OH2        -5.1870   21.8680   17.8280 O.3   4564  TIP4553    -0.4105
  13854 H1         -5.6520   21.3650   17.1590 H     4564  TIP4553     0.2052
  13855 H2         -4.2660   21.8080   17.5770 H     4564  TIP4553     0.2052
  13856 OH2       -18.9580   21.1350   11.7320 O.3   4565  TIP4554    -0.4105
  13857 H1        -19.6850   20.5620   11.4900 H     4565  TIP4554     0.2052
  13858 H2        -18.4360   20.6140   12.3430 H     4565  TIP4554     0.2052
  13859 OH2        -6.8900  -21.0410   13.3130 O.3   4566  TIP4555    -0.4105
  13860 H1         -6.7410  -20.2320   12.8240 H     4566  TIP4555     0.2052
  13861 H2         -7.5390  -20.8050   13.9750 H     4566  TIP4555     0.2052
  13862 OH2        10.5600  -20.9330  -11.5290 O.3   4567  TIP4556    -0.4105
  13863 H1         10.8990  -21.8230  -11.6150 H     4567  TIP4556     0.2052
  13864 H2         11.0820  -20.5440  -10.8260 H     4567  TIP4556     0.2052
  13865 OH2       -11.8760   18.0750  -17.3240 O.3   4568  TIP4557    -0.4105
  13866 H1        -11.5180   17.9140  -18.1970 H     4568  TIP4557     0.2052
  13867 H2        -12.6880   17.5680  -17.3000 H     4568  TIP4557     0.2052
  13868 OH2       -19.3320   -8.0950  -14.8310 O.3   4569  TIP4558    -0.4105
  13869 H1        -20.0500   -8.6890  -15.0490 H     4569  TIP4558     0.2052
  13870 H2        -19.5470   -7.2810  -15.2870 H     4569  TIP4558     0.2052
  13871 OH2       -16.9940  -11.1940    4.1840 O.3   4570  TIP4559    -0.4105
  13872 H1        -16.9250  -10.8350    5.0690 H     4570  TIP4559     0.2052
  13873 H2        -17.8680  -10.9390    3.8890 H     4570  TIP4559     0.2052
  13874 OH2        11.7270    8.6610   -6.9120 O.3   4571  TIP4560    -0.4105
  13875 H1         11.9390    7.7420   -6.7500 H     4571  TIP4560     0.2052
  13876 H2         10.8840    8.7930   -6.4770 H     4571  TIP4560     0.2052
  13877 OH2        13.3860  -32.4900   -1.7490 O.3   4572  TIP4561    -0.4105
  13878 H1         13.5860  -32.3450   -2.6730 H     4572  TIP4561     0.2052
  13879 H2         12.8830  -33.3050   -1.7370 H     4572  TIP4561     0.2052
  13880 OH2        -3.2090   -5.5290   22.9970 O.3   4573  TIP4562    -0.4105
  13881 H1         -3.3080   -5.2760   22.0790 H     4573  TIP4562     0.2052
  13882 H2         -2.6970   -6.3370   22.9700 H     4573  TIP4562     0.2052
  13883 OH2       -12.5530    4.1640    7.3950 O.3   4574  TIP4563    -0.4105
  13884 H1        -11.9190    4.6700    7.9020 H     4574  TIP4563     0.2052
  13885 H2        -12.1850    3.2810    7.3610 H     4574  TIP4563     0.2052
  13886 OH2        19.2960   -4.0040    1.2610 O.3   4575  TIP4564    -0.4105
  13887 H1         19.1080   -4.1760    2.1840 H     4575  TIP4564     0.2052
  13888 H2         19.6250   -4.8370    0.9240 H     4575  TIP4564     0.2052
  13889 OH2       -29.3610    4.0950   -1.7780 O.3   4576  TIP4565    -0.4105
  13890 H1        -30.1680    4.5990   -1.8840 H     4576  TIP4565     0.2052
  13891 H2        -29.2530    3.6380   -2.6130 H     4576  TIP4565     0.2052
  13892 OH2        -0.4630   -6.1810   33.2220 O.3   4577  TIP4566    -0.4105
  13893 H1         -0.4940   -6.4950   34.1250 H     4577  TIP4566     0.2052
  13894 H2         -0.6080   -6.9640   32.6900 H     4577  TIP4566     0.2052
  13895 OH2         7.2240  -24.0920   11.0010 O.3   4578  TIP4567    -0.4105
  13896 H1          7.8320  -24.1290   11.7390 H     4578  TIP4567     0.2052
  13897 H2          6.3620  -24.2350   11.3930 H     4578  TIP4567     0.2052
  13898 OH2        -7.0660   12.8510  -28.6260 O.3   4579  TIP4568    -0.4105
  13899 H1         -6.8370   11.9480  -28.4030 H     4579  TIP4568     0.2052
  13900 H2         -7.0800   12.8650  -29.5830 H     4579  TIP4568     0.2052
  13901 OH2         6.1110   24.3370    9.2790 O.3   4580  TIP4569    -0.4105
  13902 H1          6.2200   25.1850    9.7090 H     4580  TIP4569     0.2052
  13903 H2          6.0640   24.5450    8.3460 H     4580  TIP4569     0.2052
  13904 OH2         0.8710   -9.4110  -10.3290 O.3   4581  TIP4570    -0.4105
  13905 H1          1.3160  -10.0380   -9.7580 H     4581  TIP4570     0.2052
  13906 H2          0.9540   -9.7850  -11.2060 H     4581  TIP4570     0.2052
  13907 OH2        -2.6310   27.4840   12.9470 O.3   4582  TIP4571    -0.4105
  13908 H1         -2.2800   26.5950   12.9930 H     4582  TIP4571     0.2052
  13909 H2         -2.0760   27.9910   13.5410 H     4582  TIP4571     0.2052
  13910 OH2         2.4890  -15.4380   17.9580 O.3   4583  TIP4572    -0.4105
  13911 H1          2.9110  -15.7240   18.7680 H     4583  TIP4572     0.2052
  13912 H2          2.8370  -14.5600   17.8030 H     4583  TIP4572     0.2052
  13913 OH2        16.8340  -30.6910    1.3230 O.3   4584  TIP4573    -0.4105
  13914 H1         17.0800  -31.2800    0.6090 H     4584  TIP4573     0.2052
  13915 H2         16.6040  -31.2750    2.0460 H     4584  TIP4573     0.2052
  13916 OH2         9.2500  -10.7000    5.1650 O.3   4585  TIP4574    -0.4105
  13917 H1          9.6570  -10.9520    5.9930 H     4585  TIP4574     0.2052
  13918 H2          9.2840   -9.7430    5.1620 H     4585  TIP4574     0.2052
  13919 OH2         2.8450    3.0240  -10.0350 O.3   4586  TIP4575    -0.4105
  13920 H1          2.9260    3.4490   -9.1810 H     4586  TIP4575     0.2052
  13921 H2          3.2890    3.6170  -10.6410 H     4586  TIP4575     0.2052
  13922 OH2       -14.2080  -11.6170  -18.6180 O.3   4587  TIP4576    -0.4105
  13923 H1        -14.9020  -12.2490  -18.8040 H     4587  TIP4576     0.2052
  13924 H2        -14.2900  -10.9590  -19.3080 H     4587  TIP4576     0.2052
  13925 OH2        18.6330   13.5940   11.8000 O.3   4588  TIP4577    -0.4105
  13926 H1         17.8390   13.3940   12.2960 H     4588  TIP4577     0.2052
  13927 H2         18.9170   12.7490   11.4510 H     4588  TIP4577     0.2052
  13928 OH2         7.7010   13.0730   21.1830 O.3   4589  TIP4578    -0.4105
  13929 H1          8.2650   13.7290   20.7720 H     4589  TIP4578     0.2052
  13930 H2          6.9010   13.0820   20.6580 H     4589  TIP4578     0.2052
  13931 OH2       -20.0790    7.3180   -9.2270 O.3   4590  TIP4579    -0.4105
  13932 H1        -19.3170    6.8310   -8.9140 H     4590  TIP4579     0.2052
  13933 H2        -20.7690    6.6590   -9.3070 H     4590  TIP4579     0.2052
  13934 OH2       -14.4460   -7.3880  -17.2660 O.3   4591  TIP4580    -0.4105
  13935 H1        -14.2190   -8.1170  -16.6890 H     4591  TIP4580     0.2052
  13936 H2        -14.9660   -7.7860  -17.9630 H     4591  TIP4580     0.2052
  13937 OH2        13.6590  -25.4910   -4.5340 O.3   4592  TIP4581    -0.4105
  13938 H1         13.7230  -24.7930   -3.8830 H     4592  TIP4581     0.2052
  13939 H2         13.6810  -26.3000   -4.0220 H     4592  TIP4581     0.2052
  13940 OH2       -17.0010   -4.6440   17.4660 O.3   4593  TIP4582    -0.4105
  13941 H1        -16.6370   -4.7370   16.5860 H     4593  TIP4582     0.2052
  13942 H2        -17.7180   -4.0170   17.3640 H     4593  TIP4582     0.2052
  13943 OH2        14.2080   -2.7540  -19.2890 O.3   4594  TIP4583    -0.4105
  13944 H1         13.7350   -2.6100  -20.1090 H     4594  TIP4583     0.2052
  13945 H2         13.5300   -3.0070  -18.6620 H     4594  TIP4583     0.2052
  13946 OH2       -14.0630   16.4870  -17.4900 O.3   4595  TIP4584    -0.4105
  13947 H1        -14.8280   17.0560  -17.5750 H     4595  TIP4584     0.2052
  13948 H2        -14.4050   15.6840  -17.0950 H     4595  TIP4584     0.2052
  13949 K           3.1250  -25.6190   20.6620 K     4596  K1          0.0000
  13950 K         -12.6150   -0.8550   19.9280 K     4597  K2          0.0000
  13951 K         -23.7910    4.5460   -1.4700 K     4598  K3          0.0000
  13952 K         -10.0260  -11.5290    9.6980 K     4599  K4          0.0000
  13953 K           9.6030  -19.1570   18.4270 K     4600  K5          0.0000
  13954 K         -19.2860   22.5640    6.6760 K     4601  K6          0.0000
  13955 K          -2.5560   12.2770  -29.2980 K     4602  K7          0.0000
  13956 K          16.7550  -22.1240   12.1080 K     4603  K8          0.0000
  13957 K         -13.7420   19.8130    0.2700 K     4604  K9          0.0000
  13958 K          18.0370   -8.4080    1.8300 K     4605  K10         0.0000
  13959 K         -36.3210   -5.4320    9.7440 K     4606  K11         0.0000
  13960 K         -17.6830   -2.5900  -17.2640 K     4607  K12         0.0000
  13961 K          25.0060    1.5420    4.1130 K     4608  K13         0.0000
  13962 CL         12.9620   18.9890   18.0100 Cl    4609  CL1         0.0000
  13963 CL        -23.7330  -16.1220    7.1960 Cl    4610  CL2         0.0000
  13964 CL        -26.0110   -0.0820   -3.9500 Cl    4611  CL3         0.0000
  13965 CL          9.5070  -23.8730   17.8060 Cl    4612  CL4         0.0000
  13966 CL         10.0090  -12.2240   -9.1520 Cl    4613  CL5         0.0000
  13967 CL          0.2130   16.4470  -28.7600 Cl    4614  CL6         0.0000
  13968 CL         -6.2210   25.4030   -5.3310 Cl    4615  CL7         0.0000
  13969 CL          2.1200    7.0700  -21.8730 Cl    4616  CL8         0.0000
  13970 CL          5.1700  -17.8690   -7.7430 Cl    4617  CL9         0.0000
  13971 CL        -23.7720   11.9320   -6.8760 Cl    4618  CL10        0.0000
  13972 CL         11.1230  -22.1380   13.7960 Cl    4619  CL11        0.0000
  13973 CL        -27.7000   -3.7760    2.4500 Cl    4620  CL12        0.0000
  13974 CL         -3.9180    2.5750   22.8490 Cl    4621  CL13        0.0000
@<TRIPOS>BOND
     1  5347  5345    1
     2  5345  5346    1
     3  8135  8136    1
     4  8135  8137    1
     5  3678  3677    1
     6  7844  7846    1
     7  7844  7845    1
     8  3679  3677    1
     9 12753 12752    1
    10  7376  7378    1
    11  7376  7377    1
    12 12274 12272    1
    13 12272 12273    1
    14  6304  6302    1
    15  3348  3347    1
    16 12752 12754    1
    17  2872  2870    1
    18  7119  7118    1
    19  3347  3349    1
    20 10465 10463    1
    21  2871  2870    1
    22  6303  6302    1
    23  8009  8011    1
    24  8009  8010    1
    25 13126 13124    1
    26  4469  4470    1
    27  4469  4471    1
    28 10464 10463    1
    29  7118  7120    1
    30 13124 13125    1
    31 13254 13253    1
    32  7938  7937    1
    33  1709  1711    1
    34  1709  1710    1
    35  7582  7580    1
    36  2788  2786    1
    37   646   644    1
    38 13255 13253    1
    39  3985  3983    1
    40 11161 11159    1
    41  7375  7373    1
    42  7937  7939    1
    43  6124  6122    1
    44  6973  6971    1
    45  7580  7581    1
    46  7373  7374    1
    47 11424 11423    1
    48   644   645    1
    49 13088 13090    1
    50 13088 13089    1
    51  2476  2474    1
    52  2786  2787    1
    53  4665  4664    1
    54  8224  8222    1
    55  6972  6971    1
    56  3983  3984    1
    57   601   599    1
    58 11159 11160    1
    59  4757  4759    1
    60  4757  4758    1
    61 11423 11425    1
    62  6122  6123    1
    63 12125 12126    1
    64 12125 12127    1
    65  8222  8223    1
    66   759   758    1
    67  2475  2474    1
    68  6372  6371    1
    69  4666  4664    1
    70 12670 12668    1
    71 12124 12122    1
    72  6371  6373    1
    73  7204  7202    1
    74   599   600    1
    75   758   760    1
    76 12845 12846    1
    77 12845 12847    1
    78 12122 12123    1
    79 13258 13256    1
    80 13256 13257    1
    81  5041  5039    1
    82  6696  6695    1
    83 11530 11528    1
    84 12669 12668    1
    85  7476  7475    1
    86  8322  8321    1
    87 13158 13157    1
    88  4314  4313    1
    89  1036  1034    1
    90 11513 11514    1
    91 11513 11515    1
    92  4313  4315    1
    93  5949  5948    1
    94  8318  8320    1
    95  8318  8319    1
    96  7202  7203    1
    97  7475  7477    1
    98  4416  4415    1
    99 13157 13159    1
   100 10805 10807    1
   101 10805 10806    1
   102  1721  1722    1
   103  1721  1723    1
   104  5039  5040    1
   105  6695  6697    1
   106  3157  3155    1
   107  1567  1565    1
   108 10220 10221    1
   109 10220 10222    1
   110  8323  8321    1
   111  1034  1035    1
   112  4415  4417    1
   113  9954  9953    1
   114  6505  6503    1
   115 10429 10427    1
   116  6503  6504    1
   117 11528 11529    1
   118 13900 13898    1
   119  2746  2744    1
   120 10840 10838    1
   121  5948  5950    1
   122  3156  3155    1
   123 10846 10844    1
   124 10838 10839    1
   125  8897  8899    1
   126  8897  8898    1
   127  1565  1566    1
   128  3982  3980    1
   129 12466 12464    1
   130 13175 13177    1
   131 13175 13176    1
   132 12849 12848    1
   133  1473  1472    1
   134  3417  3416    1
   135  3067  3065    1
   136  1472  1474    1
   137  9953  9955    1
   138 10428 10427    1
   139  8415  8414    1
   140  3416  3418    1
   141  9502  9500    1
   142 12848 12850    1
   143 10844 10845    1
   144  5527  5525    1
   145  8587  8585    1
   146  2744  2745    1
   147  5019  5018    1
   148 13898 13899    1
   149  7219  7217    1
   150  5616  5615    1
   151 11632 11630    1
   152  8416  8414    1
   153 12465 12464    1
   154  3980  3981    1
   155  7760  7761    1
   156  7760  7762    1
   157  8585  8586    1
   158  5151  5150    1
   159 11098 11096    1
   160  5150  5152    1
   161  4542  4541    1
   162  5525  5526    1
   163  1160  1161    1
   164  1160  1162    1
   165  3065  3066    1
   166 11096 11097    1
   167  4541  4543    1
   168  5444  5445    1
   169  5444  5446    1
   170  1893  1892    1
   171  5617  5615    1
   172 12934 12932    1
   173 11451 11450    1
   174  4966  4964    1
   175  7217  7218    1
   176  9475  9473    1
   177  6332  6334    1
   178  6332  6333    1
   179 11630 11631    1
   180  8545  8543    1
   181 10835 10836    1
   182 10835 10837    1
   183  5018  5020    1
   184  4152  4151    1
   185  8979  8978    1
   186  8548  8546    1
   187  9473  9474    1
   188  3495  3494    1
   189 12398 12399    1
   190 12398 12400    1
   191  9500  9501    1
   192  5283  5282    1
   193  4750  4748    1
   194 13408 13406    1
   195  6763  6761    1
   196  7354  7352    1
   197  8980  8978    1
   198 13406 13407    1
   199   766   764    1
   200  7687  7685    1
   201  2830  2828    1
   202  6170  6171    1
   203  6170  6172    1
   204   765   764    1
   205  8546  8547    1
   206  3496  3494    1
   207 10482 10481    1
   208 12932 12933    1
   209 10481 10483    1
   210  5284  5282    1
   211  4151  4153    1
   212  1892  1894    1
   213  7352  7353    1
   214 11450 11452    1
   215  8544  8543    1
   216 13806 13805    1
   217  7914  7913    1
   218 11841 11840    1
   219 10633 10631    1
   220  4748  4749    1
   221  4964  4965    1
   222 12060 12059    1
   223  7987  7985    1
   224  5055  5054    1
   225 12196 12194    1
   226  6173  6175    1
   227  6173  6174    1
   228  3655  3653    1
   229   901   899    1
   230  5702  5703    1
   231  5702  5704    1
   232  3568  3566    1
   233 13560 13559    1
   234 13559 13561    1
   235  7480  7478    1
   236  6761  6762    1
   237  2828  2829    1
   238 13807 13805    1
   239 12976 12974    1
   240 12795 12794    1
   241  7186  7184    1
   242  7913  7915    1
   243  4655  4657    1
   244  4655  4656    1
   245 10631 10632    1
   246  5960  5961    1
   247  5960  5962    1
   248  7479  7478    1
   249 12194 12195    1
   250  7685  7686    1
   251  3654  3653    1
   252  7985  7986    1
   253  2490  2489    1
   254 12388 12386    1
   255 12009 12008    1
   256  8840  8842    1
   257  8840  8841    1
   258  3723  3722    1
   259 12794 12796    1
   260  5054  5056    1
   261 11970 11969    1
   262 12059 12061    1
   263  5171  5173    1
   264  5171  5172    1
   265 11842 11840    1
   266 12386 12387    1
   267  3566  3567    1
   268 10209 10208    1
   269  7351  7349    1
   270  7184  7185    1
   271  3062  3063    1
   272  3062  3064    1
   273 10893 10892    1
   274  1969  1967    1
   275  2246  2247    1
   276  2246  2248    1
   277   900   899    1
   278 11969 11971    1
   279 12974 12975    1
   280 12876 12875    1
   281  6877  6875    1
   282  4078  4076    1
   283   627   626    1
   284  1505  1507    1
   285  1505  1506    1
   286 12282 12281    1
   287  6746  6748    1
   288  6746  6747    1
   289  1967  1968    1
   290  4702  4700    1
   291  2489  2491    1
   292  3722  3724    1
   293  8620  8618    1
   294  4452  4451    1
   295  7349  7350    1
   296   636   635    1
   297  7992  7991    1
   298  4864  4862    1
   299 12985 12983    1
   300  4076  4077    1
   301  8618  8619    1
   302  8710  8708    1
   303  5134  5132    1
   304  6454  6452    1
   305  2399  2400    1
   306  2399  2401    1
   307 10208 10210    1
   308  2550  2549    1
   309  2549  2551    1
   310  1641  1640    1
   311   626   628    1
   312 12008 12010    1
   313 12362 12363    1
   314 12362 12364    1
   315 13201 13199    1
   316 13068 13067    1
   317  6875  6876    1
   318   637   635    1
   319 12281 12283    1
   320  2101  2099    1
   321  4862  4863    1
   322  6452  6453    1
   323  7991  7993    1
   324  2959  2957    1
   325  3099  3098    1
   326 13067 13069    1
   327 10892 10894    1
   328 12732 12731    1
   329  2957  2958    1
   330  2099  2100    1
   331  4451  4453    1
   332 10889 10890    1
   333 10889 10891    1
   334 13156 13154    1
   335 12875 12877    1
   336  7287  7286    1
   337  4701  4700    1
   338 12733 12731    1
   339  3465  3464    1
   340  7812  7811    1
   341 13154 13155    1
   342  8708  8709    1
   343  1367  1368    1
   344  1367  1369    1
   345 13199 13200    1
   346  6403  6401    1
   347  5132  5133    1
   348 12983 12984    1
   349  7189  7187    1
   350  8988  8987    1
   351 12343 12341    1
   352  7286  7288    1
   353  1654  1652    1
   354  4708  4706    1
   355 11329 11327    1
   356  3098  3100    1
   357  3558  3557    1
   358 11351 11352    1
   359 11351 11353    1
   360 13629 13628    1
   361  7187  7188    1
   362  3159  3158    1
   363  8985  8984    1
   364  4674  4673    1
   365  3466  3464    1
   366 13105 13103    1
   367   831   830    1
   368  1652  1653    1
   369  8668  8666    1
   370  1637  1638    1
   371  1637  1639    1
   372 13710 13709    1
   373 12327 12326    1
   374 10809 10808    1
   375 13630 13628    1
   376  3160  3158    1
   377  6401  6402    1
   378  1640  1642    1
   379  5924  5925    1
   380  5924  5926    1
   381  1230  1229    1
   382 12341 12342    1
   383 10093 10091    1
   384  5687  5688    1
   385  5687  5689    1
   386  9355  9353    1
   387  9354  9353    1
   388  2183  2184    1
   389  2183  2185    1
   390 12140 12142    1
   391 12140 12141    1
   392  8903  8904    1
   393  8903  8905    1
   394  8987  8989    1
   395  4673  4675    1
   396  3557  3559    1
   397 13711 13709    1
   398  3262  3260    1
   399  7811  7813    1
   400  3270  3269    1
   401  4154  4156    1
   402  4154  4155    1
   403  8241  8240    1
   404  4194  4193    1
   405 10353 10352    1
   406 12608 12610    1
   407 12608 12609    1
   408  4706  4707    1
   409 13104 13103    1
   410   828   827    1
   411  2908  2906    1
   412 11328 11327    1
   413 12326 12328    1
   414  7035  7034    1
   415 12697 12695    1
   416 10808 10810    1
   417 10354 10352    1
   418 13692 13691    1
   419  8666  8667    1
   420  3040  3038    1
   421  4330  4328    1
   422 10156 10154    1
   423  4625  4627    1
   424  4625  4626    1
   425  2906  2907    1
   426   827   829    1
   427  8984  8986    1
   428  7732  7730    1
   429  4195  4193    1
   430   830   832    1
   431  7034  7036    1
   432 12696 12695    1
   433  1229  1231    1
   434  7969  7967    1
   435  3260  3261    1
   436  7968  7967    1
   437  9042  9041    1
   438  7380  7379    1
   439 10206 10205    1
   440   838   836    1
   441  1059  1058    1
   442 11913 11912    1
   443 10205 10207    1
   444  9680  9681    1
   445  9680  9682    1
   446  2387  2389    1
   447  2387  2388    1
   448  5621  5623    1
   449  5621  5622    1
   450 10154 10155    1
   451 10995 10994    1
   452  9564  9563    1
   453 10091 10092    1
   454  2481  2480    1
   455  3269  3271    1
   456 12778 12776    1
   457  8996  8997    1
   458  8996  8998    1
   459  3255  3254    1
   460 12776 12777    1
   461  3038  3039    1
   462  6067  6065    1
   463  5778  5777    1
   464  1797  1796    1
   465 11914 11912    1
   466 13242 13241    1
   467  6159  6158    1
   468  6018  6017    1
   469  5901  5900    1
   470  7730  7731    1
   471  4829  4831    1
   472  4829  4830    1
   473  9563  9565    1
   474  6160  6158    1
   475  1058  1060    1
   476  3933  3932    1
   477  7815  7814    1
   478  8240  8242    1
   479  1467  1466    1
   480   836   837    1
   481  1468  1466    1
   482  6826  6824    1
   483 13241 13243    1
   484  1716  1715    1
   485 10996 10994    1
   486  4328  4329    1
   487 12647 12649    1
   488 12647 12648    1
   489 13691 13693    1
   490  3254  3256    1
   491  2698  2696    1
   492  7379  7381    1
   493  1715  1717    1
   494  9041  9043    1
   495   496   494    1
   496 12226 12224    1
   497  9368  9369    1
   498  9368  9370    1
   499   221   223    1
   500   221   222    1
   501  1176  1175    1
   502  1945  1943    1
   503  6065  6066    1
   504  2299  2297    1
   505 11274 11273    1
   506  1558  1556    1
   507  1175  1177    1
   508   814   812    1
   509  9174  9173    1
   510  8310  8309    1
   511 11616 11615    1
   512   742   740    1
   513  1051  1049    1
   514  7183  7181    1
   515   740   741    1
   516  6032  6034    1
   517  6032  6033    1
   518  2797  2795    1
   519  8537  8539    1
   520  8537  8538    1
   521  1012  1010    1
   522  5777  5779    1
   523  2766  2765    1
   524  3093  3092    1
   525  7531  7529    1
   526  6019  6017    1
   527  3601  3599    1
   528  5188  5186    1
   529  1796  1798    1
   530  9801  9800    1
   531  3932  3934    1
   532  5187  5186    1
   533  1049  1050    1
   534  7182  7181    1
   535  2696  2697    1
   536  1010  1011    1
   537  2480  2482    1
   538   483   482    1
   539  1691  1692    1
   540  1691  1693    1
   541  5902  5900    1
   542  2196  2195    1
   543  2297  2298    1
   544  6824  6825    1
   545 11490 11489    1
   546 12397 12395    1
   547 11275 11273    1
   548 11615 11617    1
   549  2438  2440    1
   550  2438  2439    1
   551   813   812    1
   552  8067  8066    1
   553  7798  7796    1
   554  6325  6323    1
   555  6675  6674    1
   556 12396 12395    1
   557  2765  2767    1
   558  3092  3094    1
   559  7814  7816    1
   560  2811  2810    1
   561  6050  6051    1
   562  6050  6052    1
   563 11539 11537    1
   564   494   495    1
   565 11377 11375    1
   566  8082  8081    1
   567  2795  2796    1
   568   657   656    1
   569  8081  8083    1
   570 11173 11171    1
   571  8309  8311    1
   572  5046  5045    1
   573  8532  8531    1
   574  9173  9175    1
   575  1777  1775    1
   576  8213  8215    1
   577  8213  8214    1
   578  1943  1944    1
   579 11094 11093    1
   580 12792 12791    1
   581 11171 11172    1
   582   714   713    1
   583  1776  1775    1
   584  1556  1557    1
   585 12224 12225    1
   586  3599  3600    1
   587  9383  9385    1
   588  9383  9384    1
   589  2516  2517    1
   590  2516  2518    1
   591  4788  4787    1
   592  2055  2054    1
   593  1755  1754    1
   594 11489 11491    1
   595  5250  5249    1
   596  4679  4681    1
   597  4679  4680    1
   598  5811  5810    1
   599  7529  7530    1
   600 11344 11342    1
   601  8531  8533    1
   602 13791 13790    1
   603  7665  7664    1
   604  6564  6563    1
   605  6674  6676    1
   606  4936  4934    1
   607   459   458    1
   608  5810  5812    1
   609 13552 13550    1
   610  9800  9802    1
   611  2056  2054    1
   612  8569  8567    1
   613 11987 11989    1
   614 11987 11988    1
   615 10562 10564    1
   616 10562 10563    1
   617 11093 11095    1
   618   482   484    1
   619  7891  7889    1
   620 13790 13792    1
   621  1400  1401    1
   622  1400  1402    1
   623  2197  2195    1
   624   995   996    1
   625   995   997    1
   626  7664  7666    1
   627  5163  5162    1
   628  8066  8068    1
   629  5840  5842    1
   630  5840  5841    1
   631  9622  9620    1
   632  5045  5047    1
   633  6323  6324    1
   634  3588  3587    1
   635  2810  2812    1
   636  1983  1982    1
   637  9338  9339    1
   638  9338  9340    1
   639 12147 12146    1
   640  7796  7797    1
   641  5162  5164    1
   642   656   658    1
   643   589   587    1
   644  2271  2270    1
   645 11375 11376    1
   646 11537 11538    1
   647 10311 10310    1
   648  6540  6539    1
   649  1737  1736    1
   650 10399 10397    1
   651  4935  4934    1
   652 12793 12791    1
   653  1754  1756    1
   654  1814  1815    1
   655  1814  1816    1
   656   713   715    1
   657  8567  8568    1
   658 13550 13551    1
   659 10310 10312    1
   660  7890  7889    1
   661  9795  9794    1
   662 11342 11343    1
   663 10591 10589    1
   664  8302  8300    1
   665 11642 11643    1
   666 11642 11644    1
   667  8300  8301    1
   668 13421 13423    1
   669 13421 13422    1
   670 13189 13187    1
   671   458   460    1
   672  1984  1982    1
   673  3595  3593    1
   674  4787  4789    1
   675  6563  6565    1
   676  5249  5251    1
   677 12722 12723    1
   678 12722 12724    1
   679 12333 12332    1
   680  6539  6541    1
   681   792   791    1
   682 13187 13188    1
   683 11523 11522    1
   684 12813 12812    1
   685  6831  6830    1
   686 10857 10856    1
   687  2270  2272    1
   688  3010  3008    1
   689   486   485    1
   690 10397 10398    1
   691  7821  7820    1
   692  8292  8291    1
   693 13608 13607    1
   694 12666 12665    1
   695  9796  9794    1
   696 10590 10589    1
   697 10768 10766    1
   698 11522 11524    1
   699  6422  6424    1
   700  6422  6423    1
   701  8915  8917    1
   702  8915  8916    1
   703 12146 12148    1
   704 12436 12434    1
   705  3285  3284    1
   706  4723  4721    1
   707   571   569    1
   708  4530  4529    1
   709   382   380    1
   710  3769  3767    1
   711  1736  1738    1
   712 11418 11417    1
   713  9595  9593    1
   714 10015 10013    1
   715 12812 12814    1
   716  3594  3593    1
   717  4287  4286    1
   718  1243  1241    1
   719  7820  7822    1
   720  8291  8293    1
   721  9620  9621    1
   722   487   485    1
   723 13101 13100    1
   724 10766 10767    1
   725  3587  3589    1
   726  9774  9773    1
   727  9971  9972    1
   728  9971  9973    1
   729  4816  4814    1
   730  9172  9170    1
   731   587   588    1
   732 13100 13102    1
   733  8101  8099    1
   734  6967  6965    1
   735  4094  4096    1
   736  4094  4095    1
   737  6930  6929    1
   738  7099  7097    1
   739 10412 10414    1
   740 10412 10413    1
   741 13259 13261    1
   742 13259 13260    1
   743   793   791    1
   744 10448 10449    1
   745 10448 10450    1
   746 10013 10014    1
   747  1255  1253    1
   748  9623  9624    1
   749  9623  9625    1
   750  3008  3009    1
   751  7240  7238    1
   752 13607 13609    1
   753  5246  5247    1
   754  5246  5248    1
   755 13153 13151    1
   756 10583 10584    1
   757 10583 10585    1
   758  9252  9251    1
   759 12665 12667    1
   760  1546  1544    1
   761  7622  7624    1
   762  7622  7623    1
   763  4978  4976    1
   764  4815  4814    1
   765  4038  4037    1
   766  9773  9775    1
   767   569   570    1
   768  3286  3284    1
   769   381   380    1
   770 13774 13772    1
   771  2652  2651    1
   772  4037  4039    1
   773   612   611    1
   774 12332 12334    1
   775   450   449    1
   776  2651  2653    1
   777 11088 11087    1
   778 13659 13658    1
   779  3898  3896    1
   780  6832  6830    1
   781  9277  9275    1
   782 10856 10858    1
   783  2062  2060    1
   784  4529  4531    1
   785  3768  3767    1
   786  8100  8099    1
   787  1498  1496    1
   788 13773 13772    1
   789  4286  4288    1
   790  9593  9594    1
   791  9170  9171    1
   792 10261 10259    1
   793  2061  2060    1
   794  4976  4977    1
   795  8948  8949    1
   796  8948  8950    1
   797 13530 13529    1
   798  7691  7692    1
   799  7691  7693    1
   800 13152 13151    1
   801 11417 11419    1
   802  5893  5891    1
   803 12066 12065    1
   804 12434 12435    1
   805  9275  9276    1
   806  4722  4721    1
   807  7261  7259    1
   808 13944 13943    1
   809  5891  5892    1
   810  7824  7823    1
   811  1241  1242    1
   812  7563  7562    1
   813 11089 11087    1
   814  5508  5507    1
   815  5507  5509    1
   816 10518 10517    1
   817  7828  7826    1
   818  7097  7098    1
   819  2667  2666    1
   820 11456 11457    1
   821 11456 11458    1
   822   232   230    1
   823  1545  1544    1
   824  7238  7239    1
   825 10832 10834    1
   826 10832 10833    1
   827  6370  6368    1
   828 12015 12014    1
   829   613   611    1
   830 13529 13531    1
   831  8185  8183    1
   832  6929  6931    1
   833  7260  7259    1
   834  4752  4751    1
   835  6965  6966    1
   836 12664 12662    1
   837  7823  7825    1
   838 13818 13817    1
   839 12897 12896    1
   840  5302  5300    1
   841 10150 10148    1
   842  4141  4139    1
   843  7827  7826    1
   844 12231 12230    1
   845 13213 13211    1
   846  8160  8159    1
   847  3896  3897    1
   848 13660 13658    1
   849 13817 13819    1
   850   698   700    1
   851   698   699    1
   852  7562  7564    1
   853  4139  4140    1
   854  1253  1254    1
   855  9251  9253    1
   856  9528  9527    1
   857  5760  5759    1
   858  2666  2668    1
   859  9084  9083    1
   860  7869  7868    1
   861   230   231    1
   862  1443  1442    1
   863  8563  8561    1
   864 12065 12067    1
   865  3427  3425    1
   866  6368  6369    1
   867   449   451    1
   868 10992 10991    1
   869 10149 10148    1
   870  1309  1307    1
   871  3778  3776    1
   872 13828 13826    1
   873  4751  4753    1
   874 13747 13745    1
   875 12662 12663    1
   876 12896 12898    1
   877  7537  7535    1
   878  1496  1497    1
   879 13745 13746    1
   880 13924 13922    1
   881  3548  3549    1
   882  3548  3550    1
   883 13943 13945    1
   884  8183  8184    1
   885 10259 10260    1
   886 13585 13583    1
   887  8719  8717    1
   888  9117  9116    1
   889  5495  5497    1
   890  5495  5496    1
   891 11741 11742    1
   892 11741 11743    1
   893  5682  5681    1
   894 12014 12016    1
   895  9083  9085    1
   896 12946 12944    1
   897  3391  3389    1
   898  5300  5301    1
   899  5469  5468    1
   900  8159  8161    1
   901 13212 13211    1
   902 10517 10519    1
   903 13826 13827    1
   904 12511 12509    1
   905  1677  1676    1
   906 12944 12945    1
   907 10615 10613    1
   908  9523  9521    1
   909  5065  5063    1
   910  2923  2921    1
   911  4861  4859    1
   912 12790 12788    1
   913  5681  5683    1
   914  6396  6395    1
   915  8562  8561    1
   916  9857  9858    1
   917  9857  9859    1
   918  8228  8230    1
   919  8228  8229    1
   920  6386  6387    1
   921  6386  6388    1
   922   241   239    1
   923  8347  8345    1
   924  6420  6419    1
   925   360   359    1
   926  8503  8501    1
   927  9080  9081    1
   928  9080  9082    1
   929 10286 10287    1
   930 10286 10288    1
   931  1442  1444    1
   932  2348  2350    1
   933  2348  2349    1
   934  3776  3777    1
   935  9451  9449    1
   936  1308  1307    1
   937  9837  9836    1
   938  5225  5227    1
   939  5225  5226    1
   940 12230 12232    1
   941  9449  9450    1
   942  9521  9522    1
   943  9527  9529    1
   944  1312  1310    1
   945  2922  2921    1
   946 13923 13922    1
   947  5468  5470    1
   948  3425  3426    1
   949   350   351    1
   950   350   352    1
   951 10993 10991    1
   952  7402  7400    1
   953   359   361    1
   954  3390  3389    1
   955  5759  5761    1
   956  3974  3975    1
   957  3974  3976    1
   958 11261 11263    1
   959 11261 11262    1
   960  9836  9838    1
   961 12509 12510    1
   962 13593 13592    1
   963  6419  6421    1
   964  7868  7870    1
   965  7535  7536    1
   966  7655  7656    1
   967  7655  7657    1
   968  9702  9701    1
   969  5858  5860    1
   970  5858  5859    1
   971  8717  8718    1
   972  6397  6395    1
   973   240   239    1
   974  2160  2159    1
   975  7401  7400    1
   976 10203 10202    1
   977 11028 11027    1
   978 11770 11768    1
   979 11029 11027    1
   980  6815  6817    1
   981  6815  6816    1
   982  7213  7211    1
   983  2571  2570    1
   984 13583 13584    1
   985  5563  5561    1
   986  9321  9320    1
   987  7944  7943    1
   988  9116  9118    1
   989  9291  9290    1
   990  3521  3523    1
   991  3521  3522    1
   992 11733 11732    1
   993  7211  7212    1
   994  5063  5064    1
   995  6480  6479    1
   996  5952  5951    1
   997  1238  1240    1
   998  1238  1239    1
   999  1676  1678    1
  1000  2572  2570    1
  1001 10202 10204    1
  1002  3642  3641    1
  1003 13866 13865    1
  1004  9040  9038    1
  1005 12958 12956    1
  1006  5454  5453    1
  1007  2222  2223    1
  1008  2222  2224    1
  1009  5634  5633    1
  1010 10613 10614    1
  1011  5561  5562    1
  1012  8501  8502    1
  1013  4859  4860    1
  1014  3644  3646    1
  1015  3644  3645    1
  1016 12109 12107    1
  1017 11861 11863    1
  1018 11861 11862    1
  1019  2159  2161    1
  1020  1420  1418    1
  1021  8345  8346    1
  1022  1310  1311    1
  1023   651   650    1
  1024 12788 12789    1
  1025  9740  9741    1
  1026  9740  9742    1
  1027 11732 11734    1
  1028  8993  8995    1
  1029  8993  8994    1
  1030  5420  5422    1
  1031  5420  5421    1
  1032  1418  1419    1
  1033 10551 10550    1
  1034  4472  4473    1
  1035  4472  4474    1
  1036  9987  9986    1
  1037  7463  7465    1
  1038  7463  7464    1
  1039 13936 13934    1
  1040  6196  6194    1
  1041 10047 10046    1
  1042  6264  6263    1
  1043  5199  5198    1
  1044  7434  7433    1
  1045 11479 11477    1
  1046 12956 12957    1
  1047 13351 13349    1
  1048  2574  2573    1
  1049 13592 13594    1
  1050  9703  9701    1
  1051 10479 10478    1
  1052  6481  6479    1
  1053 10762 10760    1
  1054  2573  2575    1
  1055  3921  3920    1
  1056 12513 12512    1
  1057  7943  7945    1
  1058  9038  9039    1
  1059 13064 13066    1
  1060 13064 13065    1
  1061  8565  8564    1
  1062  9320  9322    1
  1063  4497  4496    1
  1064  5701  5699    1
  1065  3432  3431    1
  1066   795   794    1
  1067  6977  6978    1
  1068  6977  6979    1
  1069  3643  3641    1
  1070  1149  1148    1
  1071  3050  3051    1
  1072  3050  3052    1
  1073 11768 11769    1
  1074 11967 11966    1
  1075  8564  8566    1
  1076  8095  8093    1
  1077 10812 10811    1
  1078 10911 10910    1
  1079  1221  1220    1
  1080  9269  9270    1
  1081  9269  9271    1
  1082 13947 13946    1
  1083 13768 13766    1
  1084   369   368    1
  1085 10813 10811    1
  1086 10906 10904    1
  1087  3750  3749    1
  1088  5579  5581    1
  1089  5579  5580    1
  1090 13590 13589    1
  1091 13946 13948    1
  1092  9396  9395    1
  1093  7695  7694    1
  1094  5539  5537    1
  1095  3728  3729    1
  1096  3728  3730    1
  1097   796   794    1
  1098 11494 11492    1
  1099  9290  9292    1
  1100 10912 10910    1
  1101  8467  8465    1
  1102  3320  3321    1
  1103  3320  3322    1
  1104 10905 10904    1
  1105 12600 12599    1
  1106  8038  8036    1
  1107  8466  8465    1
  1108  1220  1222    1
  1109 11966 11968    1
  1110  5951  5953    1
  1111 11826 11825    1
  1112 12625 12623    1
  1113  5419  5417    1
  1114 12424 12422    1
  1115  2499  2498    1
  1116  5453  5455    1
  1117  5818  5816    1
  1118  6263  6265    1
  1119  7708  7706    1
  1120 10763 10764    1
  1121 10763 10765    1
  1122 10671 10670    1
  1123  4133  4134    1
  1124  4133  4135    1
  1125 12599 12601    1
  1126 13865 13867    1
  1127 10048 10046    1
  1128   368   370    1
  1129  8093  8094    1
  1130 12512 12514    1
  1131  5635  5633    1
  1132   648   647    1
  1133 10760 10761    1
  1134  1407  1406    1
  1135  8674  8672    1
  1136  2131  2129    1
  1137  5699  5700    1
  1138 13934 13935    1
  1139  1341  1340    1
  1140 12628 12626    1
  1141   650   652    1
  1142  2191  2189    1
  1143  1518  1517    1
  1144  1342  1340    1
  1145 11661 11660    1
  1146 11492 11493    1
  1147 10645 10643    1
  1148 10550 10552    1
  1149 11641 11639    1
  1150  3749  3751    1
  1151 12107 12108    1
  1152  9145  9143    1
  1153 13542 13541    1
  1154  7435  7433    1
  1155  5198  5200    1
  1156  4672  4670    1
  1157  6194  6195    1
  1158  7694  7696    1
  1159  1150  1148    1
  1160 11478 11477    1
  1161  3242  3244    1
  1162  3242  3243    1
  1163  9986  9988    1
  1164 10672 10670    1
  1165  5769  5768    1
  1166 13349 13350    1
  1167   647   649    1
  1168 10235 10236    1
  1169 10235 10237    1
  1170 12422 12423    1
  1171  5303  5305    1
  1172  5303  5304    1
  1173  5816  5817    1
  1174  9710  9712    1
  1175  9710  9711    1
  1176  8036  8037    1
  1177  6297  6296    1
  1178 10480 10478    1
  1179  1799  1801    1
  1180  1799  1800    1
  1181   826   824    1
  1182 11064 11063    1
  1183  3920  3922    1
  1184 13663 13661    1
  1185  3901  3899    1
  1186 13589 13591    1
  1187 13783 13781    1
  1188  9352  9350    1
  1189 13276 13274    1
  1190  7558  7556    1
  1191 13767 13766    1
  1192  7706  7707    1
  1193  4496  4498    1
  1194  8390  8391    1
  1195  8390  8392    1
  1196   824   825    1
  1197  3265  3263    1
  1198 11639 11640    1
  1199  3431  3433    1
  1200  2851  2849    1
  1201  2129  2130    1
  1202  9143  9144    1
  1203  2814  2813    1
  1204  5538  5537    1
  1205  5472  5471    1
  1206  4670  4671    1
  1207 12530 12532    1
  1208 12530 12531    1
  1209  5768  5770    1
  1210  2189  2190    1
  1211  3899  3900    1
  1212  9395  9397    1
  1213 12626 12627    1
  1214  5752  5750    1
  1215 10644 10643    1
  1216  2557  2555    1
  1217  8752  8750    1
  1218  2849  2850    1
  1219  6570  6569    1
  1220  5417  5418    1
  1221  6796  6794    1
  1222 13662 13661    1
  1223 11809 11807    1
  1224 11063 11065    1
  1225  8672  8673    1
  1226  1517  1519    1
  1227 13781 13782    1
  1228  2498  2500    1
  1229 10002 10001    1
  1230  5750  5751    1
  1231 12245 12247    1
  1232 12245 12246    1
  1233  8260  8258    1
  1234  2730  2729    1
  1235 13541 13543    1
  1236  8873  8875    1
  1237  8873  8874    1
  1238  9816  9815    1
  1239 12623 12624    1
  1240  2556  2555    1
  1241  4206  4205    1
  1242 11660 11662    1
  1243 10648 10646    1
  1244 10646 10647    1
  1245  7556  7557    1
  1246 11174 11176    1
  1247 11174 11175    1
  1248 10098 10097    1
  1249  1406  1408    1
  1250 11825 11827    1
  1251  8258  8259    1
  1252  3766  3764    1
  1253  3756  3755    1
  1254  5522  5523    1
  1255  5522  5524    1
  1256  6243  6242    1
  1257 10146 10145    1
  1258  4798  4796    1
  1259  8750  8751    1
  1260 11566 11564    1
  1261  6296  6298    1
  1262  6219  6218    1
  1263  4905  4904    1
  1264 10001 10003    1
  1265 13275 13274    1
  1266  3263  3264    1
  1267  5471  5473    1
  1268 10097 10099    1
  1269  4085  4087    1
  1270  4085  4086    1
  1271  5905  5903    1
  1272  4594  4592    1
  1273 11428 11426    1
  1274 12156 12155    1
  1275 11807 11808    1
  1276  4207  4205    1
  1277  9138  9137    1
  1278  5153  5155    1
  1279  5153  5154    1
  1280  9351  9350    1
  1281  9483  9482    1
  1282  9482  9484    1
  1283 10966 10964    1
  1284  6571  6569    1
  1285  5330  5331    1
  1286  5330  5332    1
  1287 12420 12419    1
  1288  8191  8189    1
  1289 11900 11902    1
  1290 11900 11901    1
  1291  4592  4593    1
  1292  9410  9411    1
  1293  9410  9412    1
  1294  2813  2815    1
  1295 12901 12899    1
  1296  6242  6244    1
  1297  1852  1850    1
  1298  3307  3305    1
  1299  7318  7316    1
  1300  2378  2380    1
  1301  2378  2379    1
  1302  3657  3656    1
  1303  5904  5903    1
  1304 10005 10004    1
  1305  8289  8288    1
  1306  4491  4490    1
  1307  2729  2731    1
  1308  4797  4796    1
  1309  4950  4949    1
  1310  6098  6099    1
  1311  6098  6100    1
  1312  6794  6795    1
  1313  3615  3614    1
  1314  2020  2018    1
  1315 10004 10006    1
  1316  4951  4949    1
  1317 13245 13244    1
  1318  9493  9491    1
  1319  9585  9584    1
  1320  7316  7317    1
  1321 11951 11952    1
  1322 11951 11953    1
  1323 12419 12421    1
  1324 13303 13301    1
  1325  3765  3764    1
  1326 10977 10976    1
  1327  8823  8822    1
  1328 12155 12157    1
  1329  2018  2019    1
  1330 11583 11582    1
  1331 13019 13021    1
  1332 13019 13020    1
  1333 13316 13317    1
  1334 13316 13318    1
  1335  7735  7733    1
  1336  9843  9842    1
  1337  8288  8290    1
  1338  6218  6220    1
  1339  8138  8139    1
  1340  8138  8140    1
  1341  4904  4906    1
  1342  6671  6673    1
  1343  6671  6672    1
  1344 13297 13295    1
  1345 11582 11584    1
  1346  9584  9586    1
  1347  5119  5117    1
  1348  4255  4253    1
  1349 10145 10147    1
  1350  8729  8731    1
  1351  8729  8730    1
  1352  9815  9817    1
  1353  3387  3386    1
  1354 12044 12045    1
  1355 12044 12046    1
  1356  4512  4511    1
  1357 11564 11565    1
  1358  8304  8303    1
  1359  7462  7460    1
  1360 11426 11427    1
  1361 13116 13115    1
  1362  2601  2600    1
  1363  3658  3656    1
  1364  8679  8678    1
  1365  3755  3757    1
  1366  3614  3616    1
  1367 13358 13360    1
  1368 13358 13359    1
  1369  4035  4034    1
  1370 12909 12908    1
  1371  9492  9491    1
  1372  8508  8507    1
  1373   373   371    1
  1374 10126 10124    1
  1375 13395 13394    1
  1376 12900 12899    1
  1377  6254  6255    1
  1378  6254  6256    1
  1379  7629  7628    1
  1380  1850  1851    1
  1381  1185  1184    1
  1382  9443  9444    1
  1383  9443  9445    1
  1384  7578  7577    1
  1385  9137  9139    1
  1386 10964 10965    1
  1387 13394 13396    1
  1388   786   785    1
  1389 13870 13868    1
  1390  3814  3812    1
  1391 13115 13117    1
  1392  1387  1385    1
  1393  3386  3388    1
  1394  1186  1184    1
  1395  2454  2453    1
  1396  4969  4967    1
  1397  4253  4254    1
  1398 12787 12785    1
  1399  4882  4880    1
  1400  8678  8680    1
  1401 10976 10978    1
  1402  5117  5118    1
  1403 10621 10619    1
  1404  9688  9686    1
  1405 13295 13296    1
  1406  8189  8190    1
  1407  3305  3306    1
  1408  8408  8410    1
  1409  8408  8409    1
  1410 13244 13246    1
  1411   253   251    1
  1412  4490  4492    1
  1413 10266 10265    1
  1414  8671  8669    1
  1415   726   725    1
  1416 12910 12908    1
  1417   725   727    1
  1418   371   372    1
  1419 13869 13868    1
  1420  2754  2753    1
  1421  5839  5837    1
  1422  5257  5255    1
  1423  4511  4513    1
  1424  4764  4763    1
  1425  9996  9995    1
  1426  6818  6820    1
  1427  6818  6819    1
  1428  7453  7451    1
  1429  6000  5999    1
  1430  7156  7154    1
  1431   576   575    1
  1432  1386  1385    1
  1433  8509  8507    1
  1434  5838  5837    1
  1435  7461  7460    1
  1436  8822  8824    1
  1437 13488 13487    1
  1438 11049 11048    1
  1439  2353  2351    1
  1440  2984  2985    1
  1441  2984  2986    1
  1442  3813  3812    1
  1443  2600  2602    1
  1444   252   251    1
  1445 13301 13302    1
  1446 10124 10125    1
  1447  9535  9533    1
  1448 11254 11252    1
  1449  7451  7452    1
  1450  7083  7082    1
  1451 11688 11687    1
  1452  2453  2455    1
  1453 10138 10136    1
  1454  4606  4604    1
  1455  1482  1481    1
  1456  8303  8305    1
  1457  7733  7734    1
  1458  9842  9844    1
  1459  7258  7256    1
  1460  5662  5660    1
  1461   787   785    1
  1462 11698 11696    1
  1463  4880  4881    1
  1464  4604  4605    1
  1465  8197  8195    1
  1466  5820  5819    1
  1467  1110  1109    1
  1468 10305 10304    1
  1469   374   376    1
  1470   374   375    1
  1471 13490 13492    1
  1472 13490 13491    1
  1473 11048 11050    1
  1474   709   707    1
  1475 10677 10676    1
  1476  1785  1784    1
  1477 11917 11915    1
  1478  9995  9997    1
  1479  1082  1083    1
  1480  1082  1084    1
  1481 11697 11696    1
  1482  7256  7257    1
  1483  9849  9848    1
  1484  4034  4036    1
  1485  3086  3087    1
  1486  3086  3088    1
  1487 10786 10784    1
  1488  5588  5589    1
  1489  5588  5590    1
  1490  2351  2352    1
  1491  5999  6001    1
  1492  2044  2042    1
  1493 10445 10447    1
  1494 10445 10446    1
  1495  7154  7155    1
  1496 10267 10265    1
  1497 11687 11689    1
  1498  5255  5256    1
  1499  4967  4968    1
  1500  7628  7630    1
  1501  5431  5429    1
  1502 10505 10506    1
  1503 10505 10507    1
  1504  4083  4082    1
  1505   748   746    1
  1506  2174  2176    1
  1507  2174  2175    1
  1508 11322 11321    1
  1509  7577  7579    1
  1510 11323 11321    1
  1511  1618  1616    1
  1512  9848  9850    1
  1513  3483  3482    1
  1514  5161  5159    1
  1515 10784 10785    1
  1516  4579  4577    1
  1517  7767  7766    1
  1518  7343  7344    1
  1519  7343  7345    1
  1520 13202 13204    1
  1521 13202 13203    1
  1522  8195  8196    1
  1523  9970  9968    1
  1524  4178  4179    1
  1525  4178  4180    1
  1526 10744 10742    1
  1527  4763  4765    1
  1528 11404 11402    1
  1529  4577  4578    1
  1530  7766  7768    1
  1531 10136 10137    1
  1532 10620 10619    1
  1533   575   577    1
  1534 13556 13557    1
  1535 13556 13558    1
  1536  5092  5090    1
  1537 12785 12786    1
  1538  8669  8670    1
  1539  6900  6899    1
  1540 10315 10313    1
  1541  9686  9687    1
  1542  1481  1483    1
  1543  7363  7361    1
  1544  3180  3179    1
  1545   746   747    1
  1546  6899  6901    1
  1547  7663  7661    1
  1548  2845  2843    1
  1549 10678 10676    1
  1550  2753  2755    1
  1551  1672  1670    1
  1552  8556  8555    1
  1553  8555  8557    1
  1554 10268 10269    1
  1555 10268 10270    1
  1556  7661  7662    1
  1557  5929  5927    1
  1558 13741 13739    1
  1559  9534  9533    1
  1560  8655  8654    1
  1561  5819  5821    1
  1562  6948  6947    1
  1563  5679  5678    1
  1564 11381 11382    1
  1565 11381 11383    1
  1566  1111  1109    1
  1567  5429  5430    1
  1568  3907  3905    1
  1569 10392 10391    1
  1570  1960  1958    1
  1571 11518 11516    1
  1572  1616  1617    1
  1573 12022 12020    1
  1574   621   620    1
  1575 11402 11403    1
  1576  5680  5678    1
  1577  8654  8656    1
  1578  1198  1196    1
  1579 13487 13489    1
  1580 11516 11517    1
  1581  7082  7084    1
  1582  6410  6411    1
  1583  6410  6412    1
  1584  7613  7615    1
  1585  7613  7614    1
  1586  1671  1670    1
  1587 13170 13169    1
  1588  1696  1694    1
  1589   707   708    1
  1590 10597 10595    1
  1591 11252 11253    1
  1592  9072  9071    1
  1593  4524  4523    1
  1594  7336  7334    1
  1595  1784  1786    1
  1596 11915 11916    1
  1597   620   622    1
  1598  5660  5661    1
  1599 10734 10733    1
  1600 10304 10306    1
  1601 13740 13739    1
  1602 12354 12353    1
  1603   469   467    1
  1604  8327  8329    1
  1605  8327  8328    1
  1606  7244  7246    1
  1607  7244  7245    1
  1608  5744  5746    1
  1609  5744  5745    1
  1610  6014  6016    1
  1611  6014  6015    1
  1612   363   362    1
  1613 12079 12077    1
  1614  5091  5090    1
  1615  9071  9073    1
  1616  3188  3190    1
  1617  3188  3189    1
  1618 10165 10163    1
  1619  4955  4956    1
  1620  4955  4957    1
  1621 11485 11483    1
  1622  2005  2003    1
  1623 13342 13340    1
  1624  9132  9131    1
  1625  5159  5160    1
  1626  4408  4406    1
  1627 12175 12173    1
  1628  7492  7490    1
  1629 10313 10314    1
  1630 13171 13169    1
  1631  3906  3905    1
  1632 10595 10596    1
  1633  9525  9524    1
  1634  3482  3484    1
  1635  6949  6947    1
  1636  9131  9133    1
  1637  1196  1197    1
  1638  5869  5867    1
  1639  9465  9464    1
  1640  2042  2043    1
  1641  9466  9464    1
  1642  2374  2372    1
  1643  6828  6827    1
  1644 12981 12980    1
  1645 11670 11669    1
  1646 11483 11484    1
  1647  4581  4580    1
  1648  7361  7362    1
  1649  8421  8420    1
  1650  4082  4084    1
  1651  9452  9454    1
  1652  9452  9453    1
  1653  7285  7283    1
  1654 10393 10391    1
  1655  3179  3181    1
  1656  9968  9969    1
  1657  6073  6071    1
  1658   457   455    1
  1659 10743 10742    1
  1660  7829  7831    1
  1661  7829  7830    1
  1662  9985  9983    1
  1663  3670  3668    1
  1664  5148  5147    1
  1665  4762  4760    1
  1666  5927  5928    1
  1667 12408 12407    1
  1668  7984  7982    1
  1669  1933  1931    1
  1670  5867  5868    1
  1671  6071  6072    1
  1672  3167  3168    1
  1673  3167  3169    1
  1674  1724  1725    1
  1675  1724  1726    1
  1676   455   456    1
  1677  4523  4525    1
  1678  6936  6935    1
  1679  2843  2844    1
  1680  3487  3485    1
  1681  2483  2484    1
  1682  2483  2485    1
  1683  6937  6935    1
  1684  3121  3119    1
  1685   778   776    1
  1686  2777  2778    1
  1687  2777  2779    1
  1688  7365  7364    1
  1689  4900  4898    1
  1690  1694  1695    1
  1691 11669 11671    1
  1692  3668  3669    1
  1693  2622  2621    1
  1694  5739  5738    1
  1695 12353 12355    1
  1696 12020 12021    1
  1697  3119  3120    1
  1698 11239 11237    1
  1699  4760  4761    1
  1700  4898  4899    1
  1701  3951  3950    1
  1702  3351  3350    1
  1703  5718  5717    1
  1704  4582  4580    1
  1705  3781  3779    1
  1706  3485  3486    1
  1707  5147  5149    1
  1708  5664  5663    1
  1709  1958  1959    1
  1710 12174 12173    1
  1711  3584  3585    1
  1712  3584  3586    1
  1713  7364  7366    1
  1714 12409 12407    1
  1715  6827  6829    1
  1716  7284  7283    1
  1717 10733 10735    1
  1718 11497 11495    1
  1719   821   823    1
  1720   821   822    1
  1721   975   974    1
  1722 13521 13520    1
  1723  7334  7335    1
  1724  1513  1511    1
  1725 10163 10164    1
  1726  1268  1270    1
  1727  1268  1269    1
  1728  1021  1019    1
  1729 11878 11876    1
  1730  8422  8420    1
  1731  7838  7839    1
  1732  7838  7840    1
  1733  1503  1502    1
  1734 13340 13341    1
  1735   946   944    1
  1736 13300 13298    1
  1737   362   364    1
  1738  9915  9914    1
  1739  6615  6614    1
  1740  2623  2621    1
  1741  9983  9984    1
  1742  5104  5102    1
  1743  7490  7491    1
  1744  5738  5740    1
  1745 11443 11441    1
  1746  5719  5717    1
  1747 11441 11442    1
  1748  5940  5939    1
  1749  2373  2372    1
  1750  1043  1044    1
  1751  1043  1045    1
  1752  3562  3560    1
  1753 10931 10933    1
  1754 10931 10932    1
  1755  2858  2860    1
  1756  2858  2859    1
  1757  1512  1511    1
  1758 10424 10425    1
  1759 10424 10426    1
  1760   467   468    1
  1761  2003  2004    1
  1762 12077 12078    1
  1763 10057 10055    1
  1764  3991  3989    1
  1765  9505  9503    1
  1766  4406  4407    1
  1767  9524  9526    1
  1768  9916  9914    1
  1769  2437  2435    1
  1770  5663  5665    1
  1771 10213 10211    1
  1772 13812 13811    1
  1773 12980 12982    1
  1774  7982  7983    1
  1775  7716  7715    1
  1776  6822  6821    1
  1777  1931  1932    1
  1778  1317  1316    1
  1779  5059  5057    1
  1780  6873  6872    1
  1781   776   777    1
  1782 13148 13149    1
  1783 13148 13150    1
  1784  4916  4917    1
  1785  4916  4918    1
  1786  1504  1502    1
  1787  1316  1318    1
  1788 11876 11877    1
  1789  4836  4835    1
  1790 12162 12161    1
  1791 10324 10322    1
  1792  6624  6623    1
  1793   840   839    1
  1794 10341 10340    1
  1795   357   356    1
  1796  2370  2369    1
  1797  3711  3710    1
  1798 12161 12163    1
  1799 12204 12203    1
  1800 10467 10466    1
  1801  7790  7792    1
  1802  7790  7791    1
  1803 13653 13652    1
  1804 11835 11834    1
  1805 12168 12167    1
  1806  5989  5987    1
  1807  5796  5795    1
  1808  3144  3143    1
  1809   942   941    1
  1810 12167 12169    1
  1811  3780  3779    1
  1812  8023  8021    1
  1813 13520 13522    1
  1814  1371  1370    1
  1815  8022  8021    1
  1816  7715  7717    1
  1817 13811 13813    1
  1818 11266 11264    1
  1819 11237 11238    1
  1820  9932  9933    1
  1821  9932  9934    1
  1822  4974  4973    1
  1823   974   976    1
  1824 12870 12869    1
  1825  5797  5795    1
  1826  2502  2501    1
  1827 11495 11496    1
  1828 10248 10247    1
  1829  7332  7331    1
  1830  9108  9107    1
  1831   385   383    1
  1832 11836 11834    1
  1833  3950  3952    1
  1834 11358 11357    1
  1835 10729 10727    1
  1836 12114 12113    1
  1837   358   356    1
  1838  3989  3990    1
  1839  3143  3145    1
  1840 13379 13381    1
  1841 13379 13380    1
  1842  1685  1686    1
  1843  1685  1687    1
  1844  5102  5103    1
  1845  5881  5879    1
  1846  1019  1020    1
  1847  1458  1457    1
  1848 10657 10655    1
  1849 12113 12115    1
  1850 13298 13299    1
  1851  6614  6616    1
  1852  3350  3352    1
  1853 12570 12569    1
  1854 13127 13129    1
  1855 13127 13128    1
  1856 12569 12571    1
  1857 12205 12203    1
  1858  4265  4266    1
  1859  4265  4267    1
  1860 12869 12871    1
  1861  2901  2900    1
  1862  5266  5264    1
  1863  8794  8792    1
  1864  8372  8373    1
  1865  8372  8374    1
  1866  8945  8946    1
  1867  8945  8947    1
  1868  2435  2436    1
  1869   945   944    1
  1870  1831  1829    1
  1871   595   593    1
  1872  9107  9109    1
  1873  9364  9362    1
  1874 10696 10694    1
  1875  3184  3182    1
  1876  8377  8375    1
  1877  2690  2692    1
  1878  2690  2691    1
  1879  5939  5941    1
  1880 13013 13015    1
  1881 13013 13014    1
  1882  6625  6623    1
  1883 13652 13654    1
  1884 10055 10056    1
  1885 10323 10322    1
  1886 12502 12500    1
  1887  9374  9375    1
  1888  9374  9376    1
  1889 11119 11117    1
  1890 13398 13397    1
  1891   782   784    1
  1892   782   783    1
  1893 11007 11006    1
  1894  2226  2225    1
  1895  3710  3712    1
  1896  9546  9545    1
  1897  1370  1372    1
  1898  8376  8375    1
  1899  2369  2371    1
  1900 10192 10190    1
  1901 11264 11265    1
  1902  2425  2423    1
  1903 10140 10139    1
  1904  4837  4835    1
  1905  5467  5465    1
  1906  3560  3561    1
  1907 12181 12179    1
  1908 13397 13399    1
  1909 12501 12500    1
  1910   430   428    1
  1911 10211 10212    1
  1912 10340 10342    1
  1913  5987  5988    1
  1914  2225  2227    1
  1915  4275  4274    1
  1916 10247 10249    1
  1917   429   428    1
  1918  1459  1457    1
  1919  6872  6874    1
  1920  6803  6805    1
  1921  6803  6804    1
  1922  8725  8723    1
  1923  9503  9504    1
  1924  8724  8723    1
  1925  5264  5265    1
  1926   943   941    1
  1927  6752  6754    1
  1928  6752  6753    1
  1929  5339  5341    1
  1930  5339  5340    1
  1931 11575 11573    1
  1932  2317  2315    1
  1933  9036  9035    1
  1934  1829  1830    1
  1935  2501  2503    1
  1936  4477  4475    1
  1937 13456 13454    1
  1938 10466 10468    1
  1939   383   384    1
  1940  8626  8624    1
  1941  6821  6823    1
  1942 13619 13621    1
  1943 13619 13620    1
  1944  8792  8793    1
  1945 12572 12573    1
  1946 12572 12574    1
  1947 12132 12131    1
  1948 10945 10943    1
  1949  5057  5058    1
  1950  1920  1919    1
  1951 11117 11118    1
  1952   292   290    1
  1953  7231  7229    1
  1954  6907  6905    1
  1955  8526  8525    1
  1956 10728 10727    1
  1957  4937  4939    1
  1958  4937  4938    1
  1959  4566  4565    1
  1960   841   839    1
  1961 12258 12257    1
  1962  9362  9363    1
  1963  6714  6713    1
  1964   990   989    1
  1965   593   594    1
  1966 13514 13515    1
  1967 13514 13516    1
  1968  9545  9547    1
  1969  7331  7333    1
  1970  9441  9440    1
  1971  7680  7679    1
  1972 12201 12200    1
  1973  4973  4975    1
  1974  7642  7640    1
  1975 11357 11359    1
  1976   585   584    1
  1977  2423  2424    1
  1978  4475  4476    1
  1979 11499 11498    1
  1980  2712  2711    1
  1981 10190 10191    1
  1982  4552  4550    1
  1983 13863 13862    1
  1984  3935  3936    1
  1985  3935  3937    1
  1986  3609  3608    1
  1987  7990  7988    1
  1988  2826  2825    1
  1989   989   991    1
  1990  4699  4697    1
  1991  4522  4520    1
  1992  6905  6906    1
  1993  8812  8810    1
  1994 11731 11729    1
  1995  3497  3498    1
  1996  3497  3499    1
  1997  6739  6737    1
  1998  5879  5880    1
  1999  7989  7988    1
  2000  4698  4697    1
  2001  5245  5243    1
  2002 13862 13864    1
  2003  8941  8939    1
  2004  5448  5447    1
  2005 11729 11730    1
  2006  1663  1661    1
  2007  5619  5618    1
  2008  4055  4057    1
  2009  4055  4056    1
  2010  6738  6737    1
  2011  9927  9926    1
  2012 10655 10656    1
  2013  6713  6715    1
  2014   930   929    1
  2015 12133 12131    1
  2016  6132  6131    1
  2017  6516  6515    1
  2018   464   465    1
  2019   464   466    1
  2020  2316  2315    1
  2021 10694 10695    1
  2022  4520  4521    1
  2023  9035  9037    1
  2024  4324  4322    1
  2025  6070  6068    1
  2026  8811  8810    1
  2027  8647  8645    1
  2028  1807  1805    1
  2029  3182  3183    1
  2030 11075 11076    1
  2031 11075 11077    1
  2032  1258  1256    1
  2033  2900  2902    1
  2034  5243  5244    1
  2035  6517  6515    1
  2036 10943 10944    1
  2037  1440  1439    1
  2038  5465  5466    1
  2039   584   586    1
  2040   961   959    1
  2041 13237 13235    1
  2042  8525  8527    1
  2043  1749  1748    1
  2044  5449  5447    1
  2045 13454 13455    1
  2046  6745  6743    1
  2047 12802 12800    1
  2048 11498 11500    1
  2049  7191  7190    1
  2050  1919  1921    1
  2051 13906 13904    1
  2052 11006 11008    1
  2053  9442  9440    1
  2054  5611  5609    1
  2055 12179 12180    1
  2056   929   931    1
  2057  4652  4654    1
  2058  4652  4653    1
  2059  4662  4661    1
  2060  6631  6629    1
  2061  4068  4067    1
  2062  4567  4565    1
  2063 10139 10141    1
  2064  6741  6740    1
  2065  2711  2713    1
  2066 12034 12032    1
  2067  1439  1441    1
  2068  8939  8940    1
  2069 10180 10178    1
  2070  9926  9928    1
  2071  1750  1748    1
  2072  8645  8646    1
  2073 11574 11573    1
  2074  8193  8192    1
  2075  9123  9122    1
  2076  6630  6629    1
  2077  4274  4276    1
  2078   291   290    1
  2079  1257  1256    1
  2080  4940  4942    1
  2081  4940  4941    1
  2082  2817  2816    1
  2083 10884 10883    1
  2084  1333  1331    1
  2085 13600 13598    1
  2086  5320  5318    1
  2087  7089  7088    1
  2088 12200 12202    1
  2089  8624  8625    1
  2090  2816  2818    1
  2091 12049 12047    1
  2092 10178 10179    1
  2093  3127  3125    1
  2094  7679  7681    1
  2095  2292  2291    1
  2096 10885 10883    1
  2097  7795  7793    1
  2098 11879 11880    1
  2099 11879 11881    1
  2100  1033  1031    1
  2101  9959  9960    1
  2102  9959  9961    1
  2103  4067  4069    1
  2104  4326  4325    1
  2105  3608  3610    1
  2106  7793  7794    1
  2107 11487 11486    1
  2108 12048 12047    1
  2109  6744  6743    1
  2110  7229  7230    1
  2111 11486 11488    1
  2112 12257 12259    1
  2113  5610  5609    1
  2114  4350  4349    1
  2115  1805  1806    1
  2116  4461  4460    1
  2117 11505 11504    1
  2118 10990 10988    1
  2119  4970  4971    1
  2120  4970  4972    1
  2121  4766  4767    1
  2122  4766  4768    1
  2123  6068  6069    1
  2124  2947  2945    1
  2125 12191 12193    1
  2126 12191 12192    1
  2127  8148  8147    1
  2128  8965  8963    1
  2129 13598 13599    1
  2130  2825  2827    1
  2131  8462  8463    1
  2132  8462  8464    1
  2133  4572  4571    1
  2134  8963  8964    1
  2135  7640  7641    1
  2136  6559  6557    1
  2137  4322  4323    1
  2138  4550  4551    1
  2139  6740  6742    1
  2140  2699  2701    1
  2141  2699  2700    1
  2142  7417  7415    1
  2143  1661  1662    1
  2144   959   960    1
  2145  4137  4136    1
  2146  2808  2807    1
  2147  6954  6953    1
  2148 13921 13919    1
  2149  4065  4064    1
  2150  7415  7416    1
  2151  8983  8981    1
  2152  6784  6782    1
  2153 12874 12872    1
  2154  5318  5319    1
  2155  7021  7019    1
  2156  6039  6038    1
  2157  9239  9241    1
  2158  9239  9240    1
  2159  4573  4571    1
  2160  5710  5708    1
  2161  7190  7192    1
  2162   806   807    1
  2163   806   808    1
  2164  5618  5620    1
  2165  4325  4327    1
  2166  4693  4691    1
  2167  2689  2687    1
  2168  3570  3569    1
  2169  6558  6557    1
  2170  2395  2393    1
  2171  6131  6133    1
  2172  9285  9284    1
  2173 12800 12801    1
  2174 12033 12032    1
  2175  2393  2394    1
  2176  9234  9233    1
  2177 10431 10430    1
  2178  1450  1448    1
  2179  4047  4046    1
  2180   420   419    1
  2181  5239  5237    1
  2182  2291  2293    1
  2183  2580  2579    1
  2184  9124  9122    1
  2185  4114  4112    1
  2186 10988 10989    1
  2187  7291  7289    1
  2188  2866  2864    1
  2189  6450  6449    1
  2190  1864  1862    1
  2191  1331  1332    1
  2192  2707  2705    1
  2193  3126  3125    1
  2194  9286  9284    1
  2195  4354  4352    1
  2196  6782  6783    1
  2197  4112  4113    1
  2198 13235 13236    1
  2199  1846  1844    1
  2200   421   419    1
  2201  3837  3836    1
  2202  2961  2960    1
  2203  5377  5375    1
  2204  4691  4692    1
  2205  4661  4663    1
  2206  4737  4736    1
  2207 13904 13905    1
  2208  4351  4349    1
  2209  1845  1844    1
  2210  1745  1747    1
  2211  1745  1746    1
  2212  6601  6599    1
  2213  1768  1766    1
  2214  3836  3838    1
  2215 11701 11699    1
  2216  5781  5780    1
  2217  6451  6449    1
  2218 12497 12499    1
  2219 12497 12498    1
  2220  9310  9308    1
  2221  2960  2962    1
  2222  8582  8584    1
  2223  8582  8583    1
  2224  7965  7964    1
  2225 10878 10877    1
  2226  1862  1863    1
  2227  6955  6953    1
  2228  7290  7289    1
  2229 11386 11384    1
  2230  7020  7019    1
  2231 13534 13532    1
  2232 13160 13162    1
  2233 13160 13161    1
  2234  1031  1032    1
  2235  4046  4048    1
  2236  8192  8194    1
  2237  7090  7088    1
  2238 10430 10432    1
  2239 11339 11340    1
  2240 11339 11341    1
  2241  4734  4733    1
  2242  4136  4138    1
  2243  7533  7532    1
  2244 13810 13808    1
  2245 12872 12873    1
  2246 10897 10895    1
  2247 10986 10985    1
  2248  6086  6087    1
  2249  6086  6088    1
  2250 12029 12031    1
  2251 12029 12030    1
  2252 10851 10850    1
  2253 11706 11705    1
  2254  5237  5238    1
  2255 10987 10985    1
  2256 11504 11506    1
  2257  2809  2807    1
  2258   538   536    1
  2259   720   719    1
  2260  6599  6600    1
  2261  6286  6284    1
  2262 12918 12917    1
  2263  8982  8981    1
  2264  6284  6285    1
  2265 13919 13920    1
  2266   320   321    1
  2267   320   322    1
  2268  8955  8954    1
  2269  5899  5897    1
  2270  5376  5375    1
  2271  6080  6082    1
  2272  6080  6081    1
  2273  8147  8149    1
  2274  7534  7532    1
  2275  3368  3369    1
  2276  3368  3370    1
  2277 10170 10169    1
  2278 12603 12602    1
  2279 11385 11384    1
  2280 11699 11700    1
  2281  4149  4148    1
  2282   719   721    1
  2283  6038  6040    1
  2284  2595  2594    1
  2285  6405  6404    1
  2286  5708  5709    1
  2287  2945  2946    1
  2288  3420  3419    1
  2289  9722  9723    1
  2290  9722  9724    1
  2291  1766  1767    1
  2292  4460  4462    1
  2293  2706  2705    1
  2294  3569  3571    1
  2295  7488  7487    1
  2296  7949  7951    1
  2297  7949  7950    1
  2298 11705 11707    1
  2299   536   537    1
  2300 13809 13808    1
  2301  2864  2865    1
  2302  6142  6140    1
  2303  4358  4359    1
  2304  4358  4360    1
  2305  2702  2704    1
  2306  2702  2703    1
  2307  9499  9497    1
  2308  6404  6406    1
  2309 11737 11735    1
  2310 10107 10106    1
  2311 12037 12035    1
  2312 11896 11894    1
  2313  8954  8956    1
  2314  6685  6683    1
  2315 12035 12036    1
  2316  2687  2688    1
  2317   294   293    1
  2318 12948 12947    1
  2319  4064  4066    1
  2320 13532 13533    1
  2321  6110  6111    1
  2322  6110  6112    1
  2323  6036  6035    1
  2324  1631  1632    1
  2325  1631  1633    1
  2326  9308  9309    1
  2327  1449  1448    1
  2328  9233  9235    1
  2329 11895 11894    1
  2330  1405  1403    1
  2331  2759  2761    1
  2332  2759  2760    1
  2333  4352  4353    1
  2334  6895  6893    1
  2335  2594  2596    1
  2336  8014  8012    1
  2337  2579  2581    1
  2338  1192  1190    1
  2339 11580 11579    1
  2340  9478  9476    1
  2341   365   366    1
  2342   365   367    1
  2343 10396 10394    1
  2344  2565  2564    1
  2345 10791 10790    1
  2346  8766  8765    1
  2347 13137 13136    1
  2348  1074  1073    1
  2349  1843  1841    1
  2350  6664  6662    1
  2351  3419  3421    1
  2352  7964  7966    1
  2353  3073  3071    1
  2354  7443  7442    1
  2355  6299  6300    1
  2356  6299  6301    1
  2357  4854  4853    1
  2358 10758 10757    1
  2359  7746  7745    1
  2360 11581 11579    1
  2361  5780  5782    1
  2362  7487  7489    1
  2363  9668  9670    1
  2364  9668  9669    1
  2365  6893  6894    1
  2366 10850 10852    1
  2367  4736  4738    1
  2368  2301  2300    1
  2369 10171 10169    1
  2370  3162  3161    1
  2371  4488  4487    1
  2372  7399  7397    1
  2373 13527 13526    1
  2374 10395 10394    1
  2375 13097 13099    1
  2376 13097 13098    1
  2377  7621  7619    1
  2378  6192  6191    1
  2379  8157  8156    1
  2380 13138 13136    1
  2381 11289 11288    1
  2382 12947 12949    1
  2383 11288 11290    1
  2384 10442 10444    1
  2385 10442 10443    1
  2386 12704 12706    1
  2387 12704 12705    1
  2388 13933 13931    1
  2389  3762  3761    1
  2390  4144  4142    1
  2391 10877 10879    1
  2392  9642  9641    1
  2393  8039  8041    1
  2394  8039  8040    1
  2395  3761  3763    1
  2396  6544  6542    1
  2397  6530  6531    1
  2398  6530  6532    1
  2399  1212  1211    1
  2400  5295  5294    1
  2401  4733  4735    1
  2402  7947  7946    1
  2403  7620  7619    1
  2404 13931 13932    1
  2405  6030  6029    1
  2406  5253  5252    1
  2407  9641  9643    1
  2408  9438  9437    1
  2409 10371 10370    1
  2410 12917 12919    1
  2411  6523  6521    1
  2412  6915  6914    1
  2413 10895 10896    1
  2414  4148  4150    1
  2415 11998 11996    1
  2416 13498 13496    1
  2417  7948  7946    1
  2418  7397  7398    1
  2419 13835 13836    1
  2420 13835 13837    1
  2421 12150 12149    1
  2422  5866  5864    1
  2423  8127  8126    1
  2424   775   773    1
  2425  2488  2486    1
  2426  9498  9497    1
  2427   397   395    1
  2428  8765  8767    1
  2429  6684  6683    1
  2430  3365  3366    1
  2431  3365  3367    1
  2432   555   554    1
  2433  2564  2566    1
  2434 11735 11736    1
  2435 11236 11234    1
  2436  3071  3072    1
  2437 10106 10108    1
  2438 13386 13385    1
  2439  5897  5898    1
  2440 12602 12604    1
  2441  6141  6140    1
  2442 11996 11997    1
  2443  6463  6461    1
  2444  5861  5863    1
  2445  5861  5862    1
  2446  1191  1190    1
  2447  6665  6667    1
  2448  6665  6666    1
  2449  2140  2138    1
  2450  9437  9439    1
  2451  4009  4007    1
  2452 11277 11276    1
  2453  6035  6037    1
  2454 11026 11024    1
  2455  1263  1262    1
  2456  1841  1842    1
  2457 11887 11885    1
  2458  9390  9389    1
  2459  6542  6543    1
  2460  1087  1085    1
  2461  2138  2139    1
  2462  8156  8158    1
  2463 11886 11885    1
  2464  6191  6193    1
  2465  4866  4865    1
  2466 10930 10928    1
  2467  1073  1075    1
  2468  4865  4867    1
  2469 11165 11166    1
  2470 11165 11167    1
  2471  6462  6461    1
  2472 12762 12761    1
  2473  1404  1403    1
  2474  9496  9494    1
  2475  9135  9134    1
  2476 10790 10792    1
  2477  7132  7130    1
  2478  7758  7757    1
  2479 11598 11597    1
  2480  1582  1580    1
  2481 11235 11234    1
  2482 13387 13385    1
  2483  2321  2322    1
  2484  2321  2323    1
  2485 10666 10664    1
  2486  7131  7130    1
  2487  9495  9494    1
  2488  8012  8013    1
  2489  7235  7236    1
  2490  7235  7237    1
  2491  3459  3458    1
  2492  6521  6522    1
  2493 12153 12152    1
  2494 13000 12998    1
  2495   773   774    1
  2496  5640  5639    1
  2497   293   295    1
  2498  9219  9218    1
  2499  9218  9220    1
  2500  8855  8857    1
  2501  8855  8856    1
  2502  3393  3392    1
  2503 10372 10370    1
  2504 11655 11654    1
  2505 11438 11439    1
  2506 11438 11440    1
  2507  5027  5029    1
  2508  5027  5028    1
  2509 11153 11155    1
  2510 11153 11154    1
  2511  4489  4487    1
  2512  7959  7958    1
  2513  2302  2300    1
  2514  8484  8483    1
  2515 10332 10331    1
  2516   985   983    1
  2517 10083 10082    1
  2518  6867  6866    1
  2519  1644  1643    1
  2520  7745  7747    1
  2521 10757 10759    1
  2522  7442  7444    1
  2523  1211  1213    1
  2524   554   556    1
  2525  3161  3163    1
  2526  9360  9359    1
  2527  9477  9476    1
  2528  1581  1580    1
  2529  2059  2057    1
  2530  3537  3536    1
  2531 13496 13497    1
  2532  6078  6077    1
  2533  4142  4143    1
  2534  2048  2050    1
  2535  2048  2049    1
  2536 12149 12151    1
  2537  6029  6031    1
  2538  4648  4646    1
  2539  3458  3460    1
  2540  6662  6663    1
  2541 12711 12710    1
  2542  5294  5296    1
  2543  3043  3041    1
  2544 10929 10928    1
  2545 11597 11599    1
  2546   631   629    1
  2547 12998 12999    1
  2548 12576 12575    1
  2549  6378  6377    1
  2550  2058  2057    1
  2551 12606 12605    1
  2552   915   914    1
  2553   236   237    1
  2554   236   238    1
  2555  4853  4855    1
  2556  6866  6868    1
  2557  6376  6374    1
  2558  4007  4008    1
  2559 13526 13528    1
  2560  7605  7604    1
  2561  6961  6959    1
  2562  5512  5510    1
  2563 12310 12308    1
  2564   329   331    1
  2565   329   330    1
  2566  5252  5254    1
  2567  3036  3035    1
  2568 10082 10084    1
  2569 12886 12884    1
  2570  8235  8234    1
  2571  1740  1739    1
  2572 11025 11024    1
  2573  2486  2487    1
  2574   867   866    1
  2575  5785  5783    1
  2576 10331 10333    1
  2577 12820 12818    1
  2578 12309 12308    1
  2579  3536  3538    1
  2580  8878  8876    1
  2581  5907  5906    1
  2582  2928  2927    1
  2583  6914  6916    1
  2584  6377  6379    1
  2585  8126  8128    1
  2586  8278  8276    1
  2587   540   539    1
  2588   395   396    1
  2589  1262  1264    1
  2590 12818 12819    1
  2591   983   984    1
  2592 11480 11482    1
  2593 11480 11481    1
  2594  7757  7759    1
  2595  9945  9944    1
  2596  6438  6437    1
  2597 12738 12737    1
  2598 11301 11300    1
  2599  8340  8339    1
  2600 11276 11278    1
  2601  5890  5888    1
  2602 12710 12712    1
  2603  5864  5865    1
  2604   914   916    1
  2605  3035  3037    1
  2606  6053  6054    1
  2607  6053  6055    1
  2608  9805  9803    1
  2609  7618  7616    1
  2610  9359  9361    1
  2611  8180  8182    1
  2612  8180  8181    1
  2613 11136 11135    1
  2614  4840  4838    1
  2615 11091 11090    1
  2616 12774 12773    1
  2617 12737 12739    1
  2618  7658  7659    1
  2619  7658  7660    1
  2620 11656 11654    1
  2621  7958  7960    1
  2622   934   932    1
  2623  3105  3104    1
  2624  6077  6079    1
  2625  2308  2306    1
  2626 12070 12068    1
  2627  1085  1086    1
  2628  5906  5908    1
  2629  9349  9347    1
  2630 10665 10664    1
  2631  9389  9391    1
  2632 12761 12763    1
  2633  3623  3625    1
  2634  3623  3624    1
  2635  8876  8877    1
  2636  4838  4839    1
  2637  6375  6374    1
  2638 11421 11420    1
  2639  2310  2309    1
  2640   630   629    1
  2641 11956 11954    1
  2642  6959  6960    1
  2643   933   932    1
  2644 12991 12989    1
  2645  5140  5138    1
  2646 12414 12413    1
  2647  3578  3579    1
  2648  3578  3580    1
  2649  9896  9898    1
  2650  9896  9897    1
  2651 10739 10740    1
  2652 10739 10741    1
  2653  9134  9136    1
  2654  3104  3106    1
  2655  6643  6641    1
  2656  2524  2522    1
  2657  3394  3392    1
  2658  8434  8432    1
  2659  9347  9348    1
  2660 11431 11429    1
  2661  2982  2981    1
  2662  4228  4226    1
  2663  4260  4259    1
  2664 10849 10847    1
  2665  8143  8141    1
  2666  6041  6042    1
  2667  6041  6043    1
  2668  5641  5639    1
  2669 11744 11746    1
  2670 11744 11745    1
  2671 11135 11137    1
  2672  3802  3800    1
  2673  5510  5511    1
  2674  5394  5393    1
  2675 12152 12154    1
  2676  3327  3326    1
  2677  8483  8485    1
  2678 12884 12885    1
  2679  3326  3328    1
  2680 10847 10848    1
  2681 11300 11302    1
  2682  7197  7196    1
  2683  4411  4409    1
  2684 13734 13733    1
  2685  3101  3102    1
  2686  3101  3103    1
  2687  1643  1645    1
  2688  7495  7493    1
  2689  9590  9591    1
  2690  9590  9592    1
  2691  7111  7109    1
  2692  4372  4370    1
  2693  4614  4613    1
  2694  5871  5870    1
  2695 12413 12415    1
  2696  5870  5872    1
  2697  7341  7340    1
  2698  2981  2983    1
  2699  7616  7617    1
  2700  7606  7604    1
  2701 12219 12218    1
  2702  3041  3042    1
  2703  4646  4647    1
  2704 13092 13091    1
  2705 12575 12577    1
  2706  9785  9786    1
  2707  9785  9787    1
  2708  8379  8378    1
  2709 13815 13814    1
  2710  8276  8277    1
  2711  4689  4688    1
  2712  3223  3221    1
  2713  1739  1741    1
  2714  5139  5138    1
  2715  8432  8433    1
  2716 11420 11422    1
  2717  8825  8827    1
  2718  8825  8826    1
  2719 11791 11789    1
  2720  7198  7196    1
  2721  6190  6188    1
  2722 13733 13735    1
  2723  6513  6512    1
  2724  2236  2234    1
  2725  5783  5784    1
  2726  5889  5888    1
  2727  9868  9866    1
  2728 12069 12068    1
  2729 11140 11138    1
  2730 12605 12607    1
  2731  9263  9264    1
  2732  9263  9265    1
  2733  9297  9296    1
  2734   539   541    1
  2735  9803  9804    1
  2736  2927  2929    1
  2737  8234  8236    1
  2738   866   868    1
  2739  6437  6439    1
  2740  6997  6995    1
  2741  4613  4615    1
  2742 13494 13493    1
  2743  4259  4261    1
  2744  3816  3815    1
  2745  2806  2804    1
  2746  5642  5644    1
  2747  5642  5643    1
  2748  3790  3788    1
  2749  6251  6253    1
  2750  6251  6252    1
  2751  5412  5411    1
  2752  8662  8660    1
  2753  7933  7931    1
  2754  8930  8932    1
  2755  8930  8931    1
  2756  7109  7110    1
  2757  2802  2801    1
  2758  4370  4371    1
  2759  4494  4493    1
  2760  8660  8661    1
  2761  9562  9560    1
  2762  1018  1016    1
  2763  9553  9551    1
  2764  2509  2507    1
  2765 12312 12311    1
  2766  3902  3904    1
  2767  3902  3903    1
  2768  3800  3801    1
  2769  7702  7700    1
  2770  6946  6944    1
  2771  6188  6189    1
  2772  6526  6524    1
  2773 11429 11430    1
  2774  8920  8918    1
  2775  8115  8114    1
  2776 13093 13091    1
  2777  6512  6514    1
  2778 11870 11872    1
  2779 11870 11871    1
  2780  8339  8341    1
  2781  2472  2471    1
  2782 11090 11092    1
  2783  2306  2307    1
  2784  9866  9867    1
  2785  3675  3674    1
  2786  6525  6524    1
  2787  1042  1040    1
  2788  2522  2523    1
  2789  3268  3266    1
  2790 13573 13571    1
  2791  1016  1017    1
  2792  9944  9946    1
  2793  3788  3789    1
  2794 11955 11954    1
  2795  8573  8575    1
  2796  8573  8574    1
  2797 13251 13250    1
  2798  4091  4092    1
  2799  4091  4093    1
  2800  8439  8438    1
  2801  9738  9737    1
  2802  4226  4227    1
  2803  4688  4690    1
  2804  9161  9162    1
  2805  9161  9163    1
  2806 13252 13250    1
  2807  6641  6642    1
  2808  2930  2931    1
  2809  2930  2932    1
  2810 12129 12128    1
  2811  5629  5627    1
  2812  2834  2835    1
  2813  2834  2836    1
  2814 12775 12773    1
  2815  4285  4283    1
  2816 10355 10357    1
  2817 10355 10356    1
  2818 13814 13816    1
  2819  7446  7445    1
  2820 12218 12220    1
  2821 12990 12989    1
  2822  8141  8142    1
  2823  7905  7904    1
  2824  6204  6203    1
  2825  5095  5093    1
  2826  1936  1934    1
  2827 10263 10262    1
  2828  4945  4943    1
  2829 10605 10604    1
  2830  2309  2311    1
  2831  7455  7454    1
  2832 13493 13495    1
  2833 13645 13643    1
  2834  8378  8380    1
  2835  7493  7494    1
  2836  4409  4410    1
  2837  1706  1708    1
  2838  1706  1707    1
  2839  8205  8204    1
  2840 13377 13376    1
  2841  5393  5395    1
  2842  7340  7342    1
  2843  2463  2462    1
  2844  1548  1547    1
  2845 11410 11408    1
  2846  5383  5381    1
  2847  1095  1094    1
  2848  6308  6309    1
  2849  6308  6310    1
  2850  2023  2021    1
  2851  2794  2792    1
  2852 11789 11790    1
  2853  8504  8506    1
  2854  8504  8505    1
  2855  9737  9739    1
  2856  5094  5093    1
  2857  9296  9298    1
  2858  6203  6205    1
  2859  6646  6644    1
  2860  8438  8440    1
  2861 10153 10151    1
  2862  1171  1169    1
  2863  3815  3817    1
  2864  8805  8804    1
  2865 12139 12137    1
  2866  3955  3953    1
  2867  8943  8942    1
  2868 13874 13875    1
  2869 13874 13876    1
  2870  3003  3002    1
  2871 11556 11555    1
  2872  8748  8747    1
  2873  6995  6996    1
  2874 10264 10262    1
  2875  7904  7906    1
  2876  1668  1667    1
  2877  3882  3881    1
  2878  7447  7445    1
  2879  3221  3222    1
  2880  9551  9552    1
  2881  7129  7127    1
  2882   844   842    1
  2883  1572  1571    1
  2884  2803  2801    1
  2885  8034  8033    1
  2886  9560  9561    1
  2887 10477 10475    1
  2888  3953  3954    1
  2889  5403  5402    1
  2890  8747  8749    1
  2891  4780  4778    1
  2892 10475 10476    1
  2893  7700  7701    1
  2894  4557  4556    1
  2895  4284  4283    1
  2896  7931  7932    1
  2897  1096  1094    1
  2898 12130 12128    1
  2899  8850  8849    1
  2900  5324  5325    1
  2901  5324  5326    1
  2902 10801 10799    1
  2903  3002  3004    1
  2904  2473  2471    1
  2905  2234  2235    1
  2906  8559  8558    1
  2907  1954  1952    1
  2908 10604 10606    1
  2909 13572 13571    1
  2910  5737  5735    1
  2911  1547  1549    1
  2912  3938  3940    1
  2913  3938  3939    1
  2914 11408 11409    1
  2915  8851  8849    1
  2916  3965  3966    1
  2917  3965  3967    1
  2918  2917  2915    1
  2919 12311 12313    1
  2920  5411  5413    1
  2921  5627  5628    1
  2922  3266  3267    1
  2923 11138 11139    1
  2924  2804  2805    1
  2925  4300  4298    1
  2926  4878  4877    1
  2927 11555 11557    1
  2928 12285 12284    1
  2929  8425  8423    1
  2930  6944  6945    1
  2931 10800 10799    1
  2932  8116  8114    1
  2933  3881  3883    1
  2934  8033  8035    1
  2935 10039 10037    1
  2936  9400  9398    1
  2937  5698  5696    1
  2938  3783  3782    1
  2939  8942  8944    1
  2940  4943  4944    1
  2941 10151 10152    1
  2942 12340 12338    1
  2943  2462  2464    1
  2944  4879  4877    1
  2945  4225  4223    1
  2946 13087 13085    1
  2947  5381  5382    1
  2948 12384 12383    1
  2949 10918 10916    1
  2950  2021  2022    1
  2951  6202  6200    1
  2952  7508  7509    1
  2953  7508  7510    1
  2954  9619  9617    1
  2955  3633  3632    1
  2956  4054  4052    1
  2957  4052  4053    1
  2958  3674  3676    1
  2959 10038 10037    1
  2960  4493  4495    1
  2961  8024  8025    1
  2962  8024  8026    1
  2963  6090  6089    1
  2964  8918  8919    1
  2965  9814  9812    1
  2966 12690 12689    1
  2967   661   659    1
  2968  3300  3299    1
  2969 13085 13086    1
  2970  1040  1041    1
  2971  2507  2508    1
  2972 12798 12797    1
  2973 10488 10487    1
  2974  5107  5105    1
  2975  5362  5360    1
  2976 12339 12338    1
  2977  5342  5344    1
  2978  5342  5343    1
  2979  2340  2339    1
  2980  3634  3632    1
  2981  4224  4223    1
  2982  8129  8131    1
  2983  8129  8130    1
  2984   288   287    1
  2985   937   935    1
  2986 12383 12385    1
  2987  2026  2024    1
  2988 10062 10061    1
  2989 13643 13644    1
  2990  2028  2027    1
  2991  3461  3462    1
  2992  3461  3463    1
  2993  7127  7128    1
  2994 13716 13715    1
  2995  9398  9399    1
  2996  4298  4299    1
  2997  5402  5404    1
  2998 10186 10184    1
  2999  6811  6809    1
  3000 10123 10121    1
  3001  2085  2084    1
  3002  1934  1935    1
  3003 10423 10421    1
  3004 11577 11576    1
  3005 11674 11672    1
  3006 12916 12914    1
  3007 12137 12138    1
  3008  5736  5735    1
  3009  6645  6644    1
  3010  5105  5106    1
  3011 13704 13703    1
  3012  5720  5722    1
  3013  5720  5721    1
  3014  9617  9618    1
  3015  6058  6056    1
  3016   624   623    1
  3017 13376 13378    1
  3018 11311 11309    1
  3019  2071  2069    1
  3020  9907  9905    1
  3021  7454  7456    1
  3022  8553  8552    1
  3023  5602  5600    1
  3024   659   660    1
  3025  8204  8206    1
  3026 11949 11948    1
  3027 10063 10061    1
  3028 11309 11310    1
  3029 10659 10658    1
  3030   842   843    1
  3031  8442  8441    1
  3032  8804  8806    1
  3033  3013  3011    1
  3034  1169  1170    1
  3035  5601  5600    1
  3036 11930 11932    1
  3037 11930 11931    1
  3038  2793  2792    1
  3039   623   625    1
  3040  1098  1097    1
  3041  3294  3293    1
  3042  2515  2513    1
  3043 11561 11562    1
  3044 11561 11563    1
  3045  9578  9579    1
  3046  9578  9580    1
  3047 12766 12764    1
  3048 11865 11864    1
  3049  1237  1235    1
  3050   513   512    1
  3051  2029  2027    1
  3052  2086  2084    1
  3053  2904  2903    1
  3054  4911  4910    1
  3055  8261  8262    1
  3056  8261  8263    1
  3057  1667  1669    1
  3058 10421 10422    1
  3059 10489 10487    1
  3060  7500  7499    1
  3061 12515 12516    1
  3062 12515 12517    1
  3063  9152  9154    1
  3064  9152  9153    1
  3065 13631 13633    1
  3066 13631 13632    1
  3067  8423  8424    1
  3068  2513  2514    1
  3069  3784  3782    1
  3070  6089  6091    1
  3071  2220  2219    1
  3072  1573  1571    1
  3073 10916 10917    1
  3074  6200  6201    1
  3075 13538 13540    1
  3076 13538 13539    1
  3077  8558  8560    1
  3078   655   653    1
  3079  1560  1559    1
  3080   654   653    1
  3081  5360  5361    1
  3082 12253 12251    1
  3083  3299  3301    1
  3084  1559  1561    1
  3085  4556  4558    1
  3086  3977  3978    1
  3087  3977  3979    1
  3088   289   287    1
  3089  8335  8333    1
  3090  3241  3239    1
  3091  4778  4779    1
  3092  9566  9567    1
  3093  9566  9568    1
  3094  1952  1953    1
  3095  9829  9827    1
  3096  1996  1994    1
  3097  2905  2903    1
  3098  2339  2341    1
  3099  2915  2916    1
  3100  4912  4910    1
  3101  1630  1628    1
  3102  3891  3890    1
  3103  2750  2752    1
  3104  2750  2751    1
  3105  6793  6791    1
  3106  8615  8617    1
  3107  8615  8616    1
  3108 12284 12286    1
  3109  8282  8284    1
  3110  8282  8283    1
  3111  5696  5697    1
  3112 12691 12689    1
  3113  1628  1629    1
  3114  1994  1995    1
  3115  5170  5168    1
  3116   935   936    1
  3117  6856  6854    1
  3118  3912  3911    1
  3119  4045  4043    1
  3120  8928  8927    1
  3121  5286  5285    1
  3122 13717 13715    1
  3123 11950 11948    1
  3124 10389 10388    1
  3125 11197 11195    1
  3126  7049  7050    1
  3127  7049  7051    1
  3128  4528  4526    1
  3129  6807  6806    1
  3130  9906  9905    1
  3131  3011  3012    1
  3132 12468 12467    1
  3133  5285  5287    1
  3134  7501  7499    1
  3135 10234 10232    1
  3136  9812  9813    1
  3137 12783 12782    1
  3138  8552  8554    1
  3139  6721  6719    1
  3140 11672 11673    1
  3141  6107  6108    1
  3142  6107  6109    1
  3143   888   887    1
  3144  8080  8078    1
  3145 12797 12799    1
  3146  3240  3239    1
  3147  2466  2465    1
  3148 13703 13705    1
  3149  7323  7322    1
  3150  2789  2790    1
  3151  2789  2791    1
  3152  5169  5168    1
  3153  1097  1099    1
  3154  1235  1236    1
  3155 10309 10307    1
  3156 10184 10185    1
  3157  8207  8208    1
  3158  8207  8209    1
  3159  1189  1187    1
  3160  3798  3797    1
  3161 10658 10660    1
  3162  8330  8332    1
  3163  8330  8331    1
  3164  1608  1607    1
  3165 13280 13282    1
  3166 13280 13281    1
  3167 12251 12252    1
  3168  3293  3295    1
  3169  2024  2025    1
  3170  8078  8079    1
  3171  6056  6057    1
  3172  7044  7043    1
  3173  8927  8929    1
  3174  6809  6810    1
  3175 12209 12211    1
  3176 12209 12210    1
  3177  5137  5135    1
  3178  2734  2732    1
  3179 12449 12450    1
  3180 12449 12451    1
  3181 10232 10233    1
  3182  5031  5030    1
  3183  1963  1961    1
  3184 10968 10967    1
  3185 12914 12915    1
  3186  6417  6416    1
  3187  2194  2192    1
  3188  9024  9023    1
  3189 10803 10802    1
  3190 11196 11195    1
  3191 11576 11578    1
  3192  3740  3741    1
  3193  3740  3742    1
  3194  3797  3799    1
  3195 10121 10122    1
  3196 10461 10460    1
  3197  2192  2193    1
  3198 10828 10826    1
  3199 12764 12765    1
  3200  7324  7322    1
  3201  3890  3892    1
  3202  8334  8333    1
  3203  8802  8801    1
  3204  6471  6470    1
  3205 12892 12890    1
  3206 11864 11866    1
  3207  4383  4382    1
  3208 10307 10308    1
  3209   512   514    1
  3210  1456  1454    1
  3211   894   893    1
  3212  6855  6854    1
  3213  2069  2070    1
  3214  1702  1700    1
  3215 11806 11804    1
  3216 10523 10524    1
  3217 10523 10525    1
  3218 10096 10094    1
  3219  5923  5921    1
  3220  5686  5684    1
  3221 10437 10436    1
  3222  5650  5648    1
  3223  8441  8443    1
  3224  1975  1973    1
  3225 11291 11292    1
  3226 11291 11293    1
  3227  4020  4019    1
  3228  4745  4747    1
  3229  4745  4746    1
  3230 13293 13292    1
  3231  9827  9828    1
  3232 12907 12905    1
  3233   749   750    1
  3234   749   751    1
  3235  4897  4895    1
  3236 11959 11957    1
  3237  6681  6680    1
  3238  2467  2465    1
  3239  3556  3554    1
  3240  9582  9581    1
  3241  6791  6792    1
  3242 10495 10493    1
  3243 12782 12784    1
  3244  7597  7595    1
  3245  7227  7226    1
  3246  4378  4376    1
  3247 11521 11519    1
  3248 10218 10217    1
  3249  6357  6356    1
  3250  7126  7124    1
  3251  9557  9558    1
  3252  9557  9559    1
  3253  5030  5032    1
  3254 13596 13595    1
  3255  1961  1962    1
  3256  3282  3281    1
  3257  9356  9357    1
  3258  9356  9358    1
  3259  6416  6418    1
  3260 10095 10094    1
  3261  3233  3234    1
  3262  3233  3235    1
  3263  7124  7125    1
  3264 12955 12953    1
  3265  4921  4919    1
  3266 12598 12596    1
  3267  9023  9025    1
  3268 10388 10390    1
  3269  1455  1454    1
  3270  4384  4382    1
  3271 13363 13361    1
  3272 10843 10841    1
  3273  9583  9581    1
  3274  4019  4021    1
  3275  3488  3489    1
  3276  3488  3490    1
  3277  2219  2221    1
  3278 12467 12469    1
  3279  1624  1622    1
  3280 11805 11804    1
  3281  7032  7031    1
  3282  5534  5535    1
  3283  5534  5536    1
  3284  9937  9935    1
  3285  1476  1475    1
  3286  6806  6808    1
  3287  3342  3341    1
  3288  9925  9923    1
  3289  9367  9365    1
  3290 12954 12953    1
  3291  4043  4044    1
  3292  3000  2999    1
  3293 10969 10967    1
  3294  3911  3913    1
  3295 10818 10817    1
  3296   643   641    1
  3297  3867  3866    1
  3298 10434 10433    1
  3299  8610  8609    1
  3300  5648  5649    1
  3301  9975  9974    1
  3302 10068 10067    1
  3303  7226  7228    1
  3304  1054  1052    1
  3305   642   641    1
  3306  4230  4229    1
  3307  5076  5075    1
  3308  5135  5136    1
  3309   887   889    1
  3310  8852  8853    1
  3311  8852  8854    1
  3312  4455  4454    1
  3313 11551 11549    1
  3314  2152  2150    1
  3315 10438 10436    1
  3316 13292 13294    1
  3317 12596 12597    1
  3318  3150  3149    1
  3319 10521 10520    1
  3320 12433 12431    1
  3321  2732  2733    1
  3322 10842 10841    1
  3323 12416 12417    1
  3324 12416 12418    1
  3325  4896  4895    1
  3326  9104  9106    1
  3327  9104  9105    1
  3328  4932  4931    1
  3329  4526  4527    1
  3330  7902  7901    1
  3331  1187  1188    1
  3332  1701  1700    1
  3333   201   200    1
  3334 10545 10544    1
  3335 10503 10502    1
  3336  2245  2243    1
  3337  6612  6611    1
  3338  5557  5555    1
  3339  9600  9599    1
  3340  3554  3555    1
  3341  9408  9407    1
  3342 12890 12891    1
  3343  4376  4377    1
  3344  1974  1973    1
  3345  2541  2540    1
  3346  5920  5918    1
  3347  4188  4187    1
  3348  9599  9601    1
  3349  8754  8753    1
  3350 10253 10255    1
  3351 10253 10254    1
  3352  6719  6720    1
  3353 11400 11399    1
  3354  7596  7595    1
  3355 10435 10433    1
  3356 11519 11520    1
  3357  5075  5077    1
  3358 13361 13362    1
  3359  7045  7043    1
  3360 13595 13597    1
  3361   799   797    1
  3362  4231  4229    1
  3363  3149  3151    1
  3364 13434 13433    1
  3365 10067 10069    1
  3366 12770 12771    1
  3367 12770 12772    1
  3368  6470  6472    1
  3369  7901  7903    1
  3370 10493 10494    1
  3371  6528  6527    1
  3372 13110 13109    1
  3373  6680  6682    1
  3374 13435 13433    1
  3375  8934  8933    1
  3376  8801  8803    1
  3377  5734  5732    1
  3378  3343  3341    1
  3379 13044 13043    1
  3380  3866  3868    1
  3381  1607  1609    1
  3382 11251 11249    1
  3383 13937 13939    1
  3384 13937 13938    1
  3385  1014  1013    1
  3386  5921  5922    1
  3387 10460 10462    1
  3388   886   884    1
  3389  1030  1028    1
  3390   858   857    1
  3391  5732  5733    1
  3392  9923  9924    1
  3393 11549 11550    1
  3394 11957 11958    1
  3395  4931  4933    1
  3396  3666  3665    1
  3397  2428  2426    1
  3398 10802 10804    1
  3399 10909 10907    1
  3400  1477  1475    1
  3401  6247  6245    1
  3402  4919  4920    1
  3403  5555  5556    1
  3404  9976  9974    1
  3405  2408  2410    1
  3406  2408  2409    1
  3407 10217 10219    1
  3408 12055 12053    1
  3409  7740  7739    1
  3410 12905 12906    1
  3411 10826 10827    1
  3412  8726  8727    1
  3413  8726  8728    1
  3414   558   557    1
  3415   893   895    1
  3416  9409  9407    1
  3417  9365  9366    1
  3418  8935  8933    1
  3419 13851 13850    1
  3420  9935  9936    1
  3421  2686  2684    1
  3422  9772  9770    1
  3423  5684  5685    1
  3424  7881  7880    1
  3425  3544  3542    1
  3426  8887  8885    1
  3427  3027  3026    1
  3428  5918  5919    1
  3429 13182 13181    1
  3430  1479  1478    1
  3431  3752  3754    1
  3432  3752  3753    1
  3433  6773  6774    1
  3434  6773  6775    1
  3435  3880  3878    1
  3436  3281  3283    1
  3437  1647  1646    1
  3438 11249 11250    1
  3439  4848  4847    1
  3440   909   908    1
  3441   200   202    1
  3442  9415  9413    1
  3443  2426  2427    1
  3444  8886  8885    1
  3445  6604  6602    1
  3446  2150  2151    1
  3447  3334  3332    1
  3448  7882  7880    1
  3449  4980  4979    1
  3450 10704 10703    1
  3451 11399 11401    1
  3452  4979  4981    1
  3453 11286 11285    1
  3454   850   848    1
  3455   849   848    1
  3456  2243  2244    1
  3457  2212  2210    1
  3458   908   910    1
  3459  6356  6358    1
  3460  8665  8663    1
  3461 12054 12053    1
  3462 11553 11552    1
  3463 11552 11554    1
  3464 10522 10520    1
  3465  4454  4456    1
  3466  7835  7836    1
  3467  7835  7837    1
  3468 11748 11747    1
  3469 10817 10819    1
  3470  1622  1623    1
  3471  3110  3112    1
  3472  3110  3111    1
  3473 12431 12432    1
  3474  4264  4262    1
  3475 11709 11708    1
  3476   306   305    1
  3477  4847  4849    1
  3478   857   859    1
  3479 13111 13109    1
  3480  1114  1112    1
  3481  2122  2120    1
  3482  1052  1053    1
  3483  7031  7033    1
  3484  4262  4263    1
  3485   305   307    1
  3486  9414  9413    1
  3487  3026  3028    1
  3488  8611  8609    1
  3489  1028  1029    1
  3490  7107  7106    1
  3491  6527  6529    1
  3492  4187  4189    1
  3493 11991 11990    1
  3494  2158  2156    1
  3495 10703 10705    1
  3496  2999  3001    1
  3497 13045 13043    1
  3498 10502 10504    1
  3499 10544 10546    1
  3500  4620  4619    1
  3501  4290  4289    1
  3502  1015  1013    1
  3503  4930  4928    1
  3504  6833  6834    1
  3505  6833  6835    1
  3506  4618  4616    1
  3507  8383  8381    1
  3508   336   335    1
  3509 11335 11333    1
  3510  1646  1648    1
  3511  9771  9770    1
  3512  2364  2363    1
  3513 11319 11318    1
  3514  8059  8057    1
  3515   924   923    1
  3516  1480  1478    1
  3517   884   885    1
  3518   797   798    1
  3519  4390  4388    1
  3520  8365  8363    1
  3521 11727 11726    1
  3522  2540  2542    1
  3523  4027  4025    1
  3524 10386 10385    1
  3525  6611  6613    1
  3526  2211  2210    1
  3527 13355 13357    1
  3528 13355 13356    1
  3529  8428  8426    1
  3530 13181 13183    1
  3531  8744  8745    1
  3532  8744  8746    1
  3533  3665  3667    1
  3534  4687  4685    1
  3535 11990 11992    1
  3536  1112  1113    1
  3537 12439 12437    1
  3538  7149  7148    1
  3539  5917  5915    1
  3540  2878  2876    1
  3541   557   559    1
  3542  3943  3941    1
  3543   579   578    1
  3544 11318 11320    1
  3545  8753  8755    1
  3546   780   779    1
  3547 11041 11039    1
  3548  3705  3704    1
  3549  5122  5120    1
  3550 11285 11287    1
  3551  2562  2561    1
  3552 12406 12404    1
  3553  8266  8264    1
  3554  4026  4025    1
  3555  8381  8382    1
  3556  4619  4621    1
  3557   580   578    1
  3558  9903  9902    1
  3559 11710 11708    1
  3560 10907 10908    1
  3561 11747 11749    1
  3562  7743  7742    1
  3563  6635  6637    1
  3564  6635  6636    1
  3565 10160 10162    1
  3566 10160 10161    1
  3567  4123  4121    1
  3568 11333 11334    1
  3569   891   890    1
  3570 12437 12438    1
  3571  3706  3704    1
  3572  6317  6318    1
  3573  6317  6319    1
  3574  7389  7388    1
  3575  6678  6677    1
  3576   923   925    1
  3577  3228  3227    1
  3578 10385 10387    1
  3579  3878  3879    1
  3580  6245  6246    1
  3581  1575  1574    1
  3582 13850 13852    1
  3583  1705  1703    1
  3584  6723  6722    1
  3585  2977  2975    1
  3586 11325 11324    1
  3587 11713 11711    1
  3588  7739  7741    1
  3589 12013 12011    1
  3590  2848  2846    1
  3591 12457 12455    1
  3592  1574  1576    1
  3593  3542  3543    1
  3594  8663  8664    1
  3595  2684  2685    1
  3596  5947  5945    1
  3597   663   662    1
  3598  8478  8477    1
  3599  7106  7108    1
  3600  3333  3332    1
  3601  6886  6884    1
  3602   337   335    1
  3603  1315  1313    1
  3604  6115  6113    1
  3605  6478  6476    1
  3606  9102  9101    1
  3607 11454 11453    1
  3608  9902  9904    1
  3609  7148  7150    1
  3610  6602  6603    1
  3611  3142  3140    1
  3612  8820  8819    1
  3613   282   281    1
  3614  5916  5915    1
  3615  3227  3229    1
  3616  6476  6477    1
  3617 13030 13028    1
  3618  7388  7390    1
  3619  8364  8363    1
  3620 12012 12011    1
  3621  4607  4608    1
  3622  4607  4609    1
  3623 12619 12617    1
  3624  1116  1115    1
  3625  2156  2157    1
  3626  1127  1129    1
  3627  1127  1128    1
  3628  1421  1422    1
  3629  1421  1423    1
  3630 10077 10076    1
  3631  7858  7856    1
  3632  7779  7778    1
  3633 13028 13029    1
  3634  4388  4389    1
  3635  1570  1568    1
  3636 12404 12405    1
  3637  8058  8057    1
  3638  1278  1277    1
  3639  2782  2780    1
  3640  4928  4929    1
  3641  5458  5456    1
  3642  3506  3508    1
  3643  3506  3507    1
  3644   517   515    1
  3645  4616  4617    1
  3646  6677  6679    1
  3647  8819  8821    1
  3648  8605  8603    1
  3649  2876  2877    1
  3650  4121  4122    1
  3651   281   283    1
  3652  6279  6278    1
  3653 11726 11728    1
  3654  3141  3140    1
  3655 11620 11618    1
  3656  1568  1569    1
  3657 13701 13700    1
  3658  6717  6716    1
  3659  4891  4889    1
  3660  3468  3467    1
  3661  2120  2121    1
  3662  4685  4686    1
  3663  2975  2976    1
  3664  8427  8426    1
  3665  1703  1704    1
  3666  2563  2561    1
  3667  7975  7973    1
  3668  8603  8604    1
  3669  3941  3942    1
  3670  7778  7780    1
  3671  3287  3288    1
  3672  3287  3289    1
  3673   779   781    1
  3674 11304 11303    1
  3675 11907 11906    1
  3676  2559  2558    1
  3677 11906 11908    1
  3678  1690  1688    1
  3679  2363  2365    1
  3680  7750  7748    1
  3681  5202  5201    1
  3682  6716  6718    1
  3683  4289  4291    1
  3684 13071 13070    1
  3685  2938  2936    1
  3686 12249 12248    1
  3687  7742  7744    1
  3688 12427 12425    1
  3689  7143  7142    1
  3690  9103  9101    1
  3691  2009  2011    1
  3692  2009  2010    1
  3693   890   892    1
  3694 10076 10078    1
  3695   132   130    1
  3696   141   139    1
  3697 12248 12250    1
  3698  4771  4769    1
  3699  3910  3908    1
  3700  6732  6731    1
  3701  3605  3606    1
  3702  3605  3607    1
  3703 11711 11712    1
  3704 12425 12426    1
  3705  3372  3371    1
  3706   609   608    1
  3707 11618 11619    1
  3708 12394 12392    1
  3709  1314  1313    1
  3710  8472  8471    1
  3711   145   143    1
  3712 10197 10196    1
  3713 12970 12968    1
  3714 13224 13223    1
  3715  6144  6143    1
  3716 12969 12968    1
  3717   662   664    1
  3718   211   209    1
  3719  5433  5432    1
  3720   210   209    1
  3721  4890  4889    1
  3722  1583  1585    1
  3723  1583  1584    1
  3724 13179 13178    1
  3725 10196 10198    1
  3726 11897 11899    1
  3727 11897 11898    1
  3728  5353  5351    1
  3729 11811 11810    1
  3730 12810 12809    1
  3731  9469  9467    1
  3732  4014  4013    1
  3733  2367  2366    1
  3734 11039 11040    1
  3735  5945  5946    1
  3736 12618 12617    1
  3737 10868 10869    1
  3738 10868 10870    1
  3739  7856  7857    1
  3740  5352  5351    1
  3741    41    40    1
  3742  7872  7871    1
  3743  6785  6787    1
  3744  6785  6786    1
  3745  5120  5121    1
  3746  9294  9293    1
  3747  7769  7770    1
  3748  7769  7771    1
  3749    38    36    1
  3750  7329  7328    1
  3751  2780  2781    1
  3752  9538  9536    1
  3753 12964 12962    1
  3754  6884  6885    1
  3755  8264  8265    1
  3756 13142 13144    1
  3757 13142 13143    1
  3758 12962 12963    1
  3759  4644  4643    1
  3760  8429  8431    1
  3761  8429  8430    1
  3762  2846  2847    1
  3763  7144  7142    1
  3764 11324 11326    1
  3765    47    45    1
  3766  1293  1292    1
  3767  6918  6917    1
  3768  8471  8473    1
  3769 12558 12557    1
  3770  7053  7052    1
  3771  6733  6731    1
  3772  8909  8910    1
  3773  8909  8911    1
  3774  1115  1117    1
  3775 13225 13223    1
  3776 13120 13118    1
  3777  3373  3371    1
  3778 12455 12456    1
  3779  1360  1358    1
  3780  6722  6724    1
  3781  3909  3908    1
  3782  2635  2633    1
  3783    48    45    1
  3784  1471  1469    1
  3785 12544 12542    1
  3786 12121 12119    1
  3787 13878 13877    1
  3788  1009  1007    1
  3789  6231  6230    1
  3790   736   734    1
  3791 12393 12392    1
  3792  5014  5012    1
  3793  1948  1946    1
  3794  8477  8479    1
  3795 10689 10688    1
  3796    42    40    1
  3797  2560  2558    1
  3798 13700 13702    1
  3799  2209  2207    1
  3800  3945  3944    1
  3801  5434  5432    1
  3802 13891 13889    1
  3803 10956 10955    1
  3804  1079  1081    1
  3805  1079  1080    1
  3806  6232  6230    1
  3807  1470  1469    1
  3808  5823  5822    1
  3809 13519 13517    1
  3810  3748  3746    1
  3811 11215 11213    1
  3812  2283  2282    1
  3813  1358  1359    1
  3814 11455 11453    1
  3815  9615  9614    1
  3816   515   516    1
  3817  6136  6134    1
  3818  3988  3986    1
  3819  6576  6575    1
  3820  4436  4437    1
  3821  4436  4438    1
  3822  6113  6114    1
  3823 12120 12119    1
  3824  7998  7997    1
  3825 13070 13072    1
  3826  1277  1279    1
  3827 12657 12656    1
  3828 13027 13025    1
  3829  5012  5013    1
  3830  5201  5203    1
  3831  3469  3467    1
  3832 12616 12614    1
  3833  6999  6998    1
  3834  2366  2368    1
  3835  4769  4770    1
  3836 12472 12470    1
  3837 11303 11305    1
  3838  9467  9468    1
  3839  1294  1292    1
  3840 13025 13026    1
  3841  2633  2634    1
  3842  6027  6026    1
  3843 11812 11810    1
  3844  9293  9295    1
  3845 11850 11849    1
  3846   136   134    1
  3847  1007  1008    1
  3848  8683  8681    1
  3849  5456  5457    1
  3850  7866  7865    1
  3851  8155  8153    1
  3852   131   130    1
  3853  9515  9517    1
  3854  9515  9516    1
  3855  7974  7973    1
  3856  9537  9536    1
  3857  2585  2586    1
  3858  2585  2587    1
  3859  3949  3947    1
  3860 13264 13262    1
  3861  2620  2618    1
  3862  8153  8154    1
  3863  7547  7549    1
  3864  7547  7548    1
  3865 11851 11849    1
  3866  3136  3134    1
  3867  6843  6842    1
  3868  6508  6506    1
  3869  4794  4793    1
  3870  2113  2111    1
  3871  6280  6278    1
  3872   610   608    1
  3873 10571 10572    1
  3874 10571 10573    1
  3875  3471  3470    1
  3876  5814  5813    1
  3877  9616  9614    1
  3878  7168  7166    1
  3879  7748  7749    1
  3880  7328  7330    1
  3881 12043 12041    1
  3882  5822  5824    1
  3883  6878  6879    1
  3884  6878  6880    1
  3885  1688  1689    1
  3886  7865  7867    1
  3887    59    58    1
  3888  1142  1144    1
  3889  1142  1143    1
  3890 10641 10640    1
  3891  7997  7999    1
  3892    61    58    1
  3893  6939  6938    1
  3894  3310  3308    1
  3895 10640 10642    1
  3896 10132 10130    1
  3897  2936  2937    1
  3898 11503 11501    1
  3899  4676  4677    1
  3900  4676  4678    1
  3901  8681  8682    1
  3902  3747  3746    1
  3903  6145  6143    1
  3904 12242 12244    1
  3905 12242 12243    1
  3906  3399  3398    1
  3907 11501 11502    1
  3908  6366  6365    1
  3909  7071  7070    1
  3910  4908  4907    1
  3911 10997 10999    1
  3912 10997 10998    1
  3913   130   133    1
  3914   130   127    1
  3915    45    46    1
  3916    45    43    1
  3917  7873  7871    1
  3918  3130  3128    1
  3919  7070  7072    1
  3920  3733  3731    1
  3921 11589 11588    1
  3922  1986  1985    1
  3923  3397  3395    1
  3924  4907  4909    1
  3925    40    43    1
  3926    40    34    1
  3927  3395  3396    1
  3928  8632  8630    1
  3929 12145 12143    1
  3930   406   404    1
  3931   694   692    1
  3932 12557 12559    1
  3933 12809 12811    1
  3934 12656 12658    1
  3935  3843  3842    1
  3936   734   735    1
  3937  5050  5048    1
  3938  5815  5813    1
  3939  2674  2672    1
  3940  2968  2966    1
  3941 13262 13263    1
  3942  8315  8317    1
  3943  8315  8316    1
  3944  2673  2672    1
  3945   682   680    1
  3946  6917  6919    1
  3947  5263  5261    1
  3948  2107  2105    1
  3949 12470 12471    1
  3950  1897  1895    1
  3951 11695 11693    1
  3952  4013  4015    1
  3953  6467  6468    1
  3954  6467  6469    1
  3955 13178 13180    1
  3956 10688 10690    1
  3957  3944  3946    1
  3958  1102  1100    1
  3959 10955 10957    1
  3960  2111  2112    1
  3961  8217  8216    1
  3962  4643  4645    1
  3963  3308  3309    1
  3964  7803  7802    1
  3965  6026  6028    1
  3966  2833  2831    1
  3967  7347  7346    1
  3968  4731  4730    1
  3969  8112  8111    1
  3970 10303 10301    1
  3971 13890 13889    1
  3972  2207  2208    1
  3973   139   140    1
  3974   139   142    1
  3975   139   137    1
  3976  9510  9509    1
  3977 12042 12041    1
  3978  6768  6767    1
  3979 12911 12913    1
  3980 12911 12912    1
  3981   681   680    1
  3982  9956  9958    1
  3983  9956  9957    1
  3984   256   254    1
  3985  6134  6135    1
  3986  7248  7247    1
  3987  7166  7167    1
  3988  3129  3128    1
  3989    35    34    1
  3990 13118 13119    1
  3991    36    37    1
  3992    36    39    1
  3993    36    33    1
  3994  6610  6608    1
  3995  3470  3472    1
  3996  7810  7808    1
  3997  8218  8216    1
  3998 13517 13518    1
  3999 12166 12164    1
  4000  3947  3948    1
  4001 10258 10256    1
  4002  5374  5372    1
  4003  8763  8762    1
  4004 10301 10302    1
  4005  4793  4795    1
  4006  6575  6577    1
  4007  6842  6844    1
  4008   143   146    1
  4009   143   144    1
  4010   143   137    1
  4011 12542 12543    1
  4012  8541  8540    1
  4013 12804 12803    1
  4014  7052  7054    1
  4015  8119  8117    1
  4016  3895  3893    1
  4017 13877 13879    1
  4018 10130 10131    1
  4019 13347 13346    1
  4020  1946  1947    1
  4021 11588 11590    1
  4022  5261  5262    1
  4023  9571  9569    1
  4024  3919  3917    1
  4025  8774  8776    1
  4026  8774  8775    1
  4027  9260  9261    1
  4028  9260  9262    1
  4029   120   118    1
  4030  2832  2831    1
  4031  2924  2925    1
  4032  2924  2926    1
  4033  2282  2284    1
  4034 12943 12941    1
  4035  3196  3194    1
  4036 13166 13167    1
  4037 13166 13168    1
  4038  3400  3398    1
  4039  3731  3732    1
  4040  9609  9608    1
  4041  1680  1679    1
  4042 11213 11214    1
  4043   255   254    1
  4044   801   800    1
  4045  6365  6367    1
  4046    58    60    1
  4047    58    55    1
  4048  9706  9704    1
  4049  2618  2619    1
  4050  3842  3844    1
  4051  2105  2106    1
  4052  6938  6940    1
  4053  3986  3987    1
  4054   693   692    1
  4055  7024  7022    1
  4056  7765  7763    1
  4057 13642 13640    1
  4058  4222  4220    1
  4059  4694  4695    1
  4060  4694  4696    1
  4061  6998  7000    1
  4062   771   770    1
  4063  8117  8118    1
  4064  6507  6506    1
  4065  7720  7718    1
  4066 12614 12615    1
  4067  8762  8764    1
  4068 13714 13712    1
  4069  8649  8648    1
  4070 11145 11144    1
  4071 11533 11531    1
  4072   404   405    1
  4073  1839  1838    1
  4074 12563 12564    1
  4075 12563 12565    1
  4076   701   703    1
  4077   701   702    1
  4078  4220  4221    1
  4079 12144 12143    1
  4080  6767  6769    1
  4081 11653 11651    1
  4082  2966  2967    1
  4083 13640 13641    1
  4084  5290  5288    1
  4085  4545  4544    1
  4086   928   926    1
  4087  3918  3917    1
  4088 10276 10274    1
  4089  1913  1914    1
  4090  1913  1915    1
  4091  5146  5144    1
  4092  3134  3135    1
  4093 11531 11532    1
  4094 10042 10040    1
  4095  1100  1101    1
  4096  1987  1985    1
  4097 12631 12629    1
  4098  5048  5049    1
  4099  7855  7853    1
  4100  7853  7854    1
  4101  7718  7719    1
  4102  1714  1712    1
  4103   134   137    1
  4104   134   135    1
  4105   134   128    1
  4106 12803 12805    1
  4107  4730  4732    1
  4108  8689  8687    1
  4109  5451  5450    1
  4110  8111  8113    1
  4111  8630  8631    1
  4112  7023  7022    1
  4113  8862  8861    1
  4114  8861  8863    1
  4115   880   878    1
  4116    43    44    1
  4117    43    49    1
  4118 12164 12165    1
  4119  1536  1535    1
  4120    34    33    1
  4121    34    53    1
  4122  5372  5373    1
  4123  5165  5167    1
  4124  5165  5166    1
  4125 13507 13505    1
  4126  8249  8251    1
  4127  8249  8250    1
  4128  1619  1620    1
  4129  1619  1621    1
  4130  9611  9613    1
  4131  9611  9612    1
  4132  1039  1037    1
  4133  6198  6197    1
  4134  9886  9884    1
  4135  1840  1838    1
  4136  8540  8542    1
  4137  1895  1896    1
  4138  9176  9178    1
  4139  9176  9177    1
  4140   137   138    1
  4141  6933  6932    1
  4142   275   277    1
  4143   275   276    1
  4144  7804  7802    1
  4145 12104 12106    1
  4146 12104 12105    1
  4147  1758  1757    1
  4148  3893  3894    1
  4149 13764 13763    1
  4150  3195  3194    1
  4151  3565  3563    1
  4152  5757  5756    1
  4153 11270 11271    1
  4154 11270 11272    1
  4155  7808  7809    1
  4156   129   128    1
  4157 12941 12942    1
  4158   592   590    1
  4159  7249  7247    1
  4160  1038  1037    1
  4161 11883 11882    1
  4162  4321  4319    1
  4163   193   191    1
  4164   124   121    1
  4165  7763  7764    1
  4166   461   462    1
  4167   461   463    1
  4168  8476  8474    1
  4169 11693 11694    1
  4170 12630 12629    1
  4171 10514 10516    1
  4172 10514 10515    1
  4173  5955  5954    1
  4174  5288  5289    1
  4175  9569  9570    1
  4176  6608  6609    1
  4177  8687  8688    1
  4178 10668 10667    1
  4179  7346  7348    1
  4180 11146 11144    1
  4181 10692 10691    1
  4182 10257 10256    1
  4183  5407  5405    1
  4184   770   772    1
  4185  9509  9511    1
  4186 13346 13348    1
  4187  8397  8396    1
  4188 13712 13713    1
  4189  9427  9425    1
  4190  5177  5178    1
  4191  5177  5179    1
  4192  4081  4079    1
  4193  9704  9705    1
  4194  4510  4508    1
  4195  1603  1601    1
  4196   127   128    1
  4197   127   125   am
  4198  3198  3197    1
  4199 13536 13535    1
  4200  5887  5885    1
  4201  5144  5145    1
  4202  4845  4844    1
  4203   926   927    1
  4204 12261 12260    1
  4205   878   879    1
  4206 13501 13499    1
  4207   802   800    1
  4208  1712  1713    1
  4209  1759  1757    1
  4210  1490  1492    1
  4211  1490  1491    1
  4212 10072 10070    1
  4213    50    49    1
  4214  2047  2045    1
  4215 11395 11393    1
  4216  2569  2567    1
  4217 10534 10532    1
  4218 12260 12262    1
  4219 10669 10667    1
  4220  8445  8444    1
  4221   122   121    1
  4222  1601  1602    1
  4223  3807  3806    1
  4224  5954  5956    1
  4225  2628  2627    1
  4226  6487  6485    1
  4227  8396  8398    1
  4228  1679  1681    1
  4229  3563  3564    1
  4230  3819  3818    1
  4231    33    31   am
  4232  9608  9610    1
  4233 10513 10511    1
  4234  5405  5406    1
  4235  8313  8312    1
  4236  5957  5959    1
  4237  5957  5958    1
  4238 11884 11882    1
  4239  4844  4846    1
  4240 13500 13499    1
  4241  5520  5519    1
  4242 10533 10532    1
  4243 11651 11652    1
  4244  5667  5666    1
  4245 13765 13763    1
  4246     8     5    1
  4247 10274 10275    1
  4248 11680 11678    1
  4249  7146  7145    1
  4250  8636  8637    1
  4251  8636  8638    1
  4252   128   147    1
  4253  8648  8650    1
  4254 10319 10321    1
  4255 10319 10320    1
  4256  6166  6164    1
  4257 10040 10041    1
  4258 12075 12074    1
  4259   105   104    1
  4260   118   119    1
  4261   118   117    1
  4262   118   125    1
  4263    84    83    1
  4264  7504  7502    1
  4265 13610 13611    1
  4266 13610 13612    1
  4267  6197  6199    1
  4268    76    75    1
  4269  4504  4502    1
  4270  6485  6486    1
  4271  6250  6248    1
  4272  4079  4080    1
  4273  6330  6329    1
  4274    79    77    1
  4275  9637  9635    1
  4276 13505 13506    1
  4277  6408  6407    1
  4278   353   354    1
  4279   353   355    1
  4280  1591  1589    1
  4281  9273  9272    1
  4282  4320  4319    1
  4283   217   215    1
  4284   952   950    1
  4285  9272  9274    1
  4286  7147  7145    1
  4287  1535  1537    1
  4288 11716 11714    1
  4289    10     9    2
  4290  7570  7568    1
  4291  1822  1820    1
  4292  5885  5886    1
  4293  1825  1823    1
  4294  8359  8357    1
  4295  5668  5666    1
  4296  5450  5452    1
  4297  4544  4546    1
  4298 13537 13535    1
  4299  6934  6932    1
  4300  8444  8446    1
  4301  1260  1259    1
  4302 13132 13130    1
  4303    29    27    1
  4304  8312  8314    1
  4305  7473  7472    1
  4306 11714 11715    1
  4307  9731  9732    1
  4308  9731  9733    1
  4309  5756  5758    1
  4310  6331  6329    1
  4311  4240  4238    1
  4312  8844  8843    1
  4313     2     1    1
  4314 11331 11330    1
  4315 10527 10526    1
  4316  3818  3820    1
  4317 13404 13403    1
  4318  5935  5933    1
  4319  8475  8474    1
  4320  5933  5934    1
  4321  5519  5521    1
  4322  7502  7503    1
  4323  9425  9426    1
  4324   590   591    1
  4325 10271 10273    1
  4326 10271 10272    1
  4327   531   530    1
  4328  7164  7163    1
  4329 13797 13796    1
  4330    55    53   am
  4331    55    56    1
  4332   121   117    1
  4333   121   123    1
  4334  3031  3029    1
  4335  9636  9635    1
  4336 11658 11657    1
  4337 13017 13016    1
  4338  7171  7169    1
  4339   117   115   am
  4340    49    52    1
  4341    49    51    1
  4342  1532  1533    1
  4343  1532  1534    1
  4344  1336  1334    1
  4345 10242 10241    1
  4346  4823  4825    1
  4347  4823  4824    1
  4348  6699  6698    1
  4349 12495 12494    1
  4350 10512 10511    1
  4351  5937  5936    1
  4352  2568  2567    1
  4353   192   191    1
  4354   972   971    1
  4355   820   818    1
  4356  9884  9885    1
  4357 11393 11394    1
  4358    73    72    2
  4359 11053 11051    1
  4360 13486 13484    1
  4361  6700  6698    1
  4362   215   216    1
  4363  2045  2046    1
  4364  4508  4509    1
  4365   436   434    1
  4366  7169  7170    1
  4367 11014 11012    1
  4368 12084 12083    1
  4369  1348  1346    1
  4370   125   126    2
  4371   950   951    1
  4372  1823  1824    1
  4373    53    54    2
  4374  6248  6249    1
  4375   407   409    1
  4376   407   408    1
  4377 10296 10295    1
  4378 10691 10693    1
  4379  8481  8480    1
  4380  4502  4503    1
  4381  6465  6464    1
  4382   191   194    1
  4383   191   189    1
  4384  2627  2629    1
  4385 10075 10073    1
  4386    78    77    1
  4387  6621  6620    1
  4388   116   115    2
  4389  3806  3808    1
  4390  8482  8480    1
  4391  7077  7076    1
  4392  3930  3929    1
  4393 13431 13430    1
  4394 10241 10243    1
  4395  9748  9746    1
  4396  7296  7295    1
  4397  4466  4467    1
  4398  4466  4468    1
  4399  1259  1261    1
  4400   971   973    1
  4401  3197  3199    1
  4402  4004  4005    1
  4403  4004  4006    1
  4404  8407  8405    1
  4405  6164  6165    1
  4406  1614  1613    1
  4407 10022 10024    1
  4408 10022 10023    1
  4409 11405 11406    1
  4410 11405 11407    1
  4411 12265 12263    1
  4412  7339  7337    1
  4413  6620  6622    1
  4414  8173  8171    1
  4415   107   106    1
  4416 12083 12085    1
  4417  9324  9323    1
  4418 10961 10963    1
  4419 10961 10962    1
  4420  9918  9917    1
  4421   115   106    1
  4422  8253  8252    1
  4423 13485 13484    1
  4424 13477 13475    1
  4425  7703  7705    1
  4426  7703  7704    1
  4427  3109  3107    1
  4428  1820  1821    1
  4429  3029  3030    1
  4430  8406  8405    1
  4431  3339  3338    1
  4432  1389  1388    1
  4433  2441  2443    1
  4434  2441  2442    1
  4435 13016 13018    1
  4436 10070 10071    1
  4437  7075  7073    1
  4438 11679 11678    1
  4439  5517  5516    1
  4440  8845  8843    1
  4441 10074 10073    1
  4442  7625  7627    1
  4443  7625  7626    1
  4444 10177 10175    1
  4445  1589  1590    1
  4446   388   386    1
  4447  1057  1055    1
  4448  5141  5142    1
  4449  5141  5143    1
  4450  3107  3108    1
  4451 11751 11750    1
  4452    13    12    1
  4453  3547  3545    1
  4454  9873  9872    1
  4455 10361 10363    1
  4456 10361 10362    1
  4457 11750 11752    1
  4458  7078  7076    1
  4459    77    74    1
  4460    77    80    1
  4461   104   106    1
  4462   104   102   am
  4463  1510  1508    1
  4464  1346  1347    1
  4465 13430 13432    1
  4466  7472  7474    1
  4467  5982  5981    1
  4468    83    81    1
  4469 11657 11659    1
  4470  7519  7517    1
  4471 12076 12074    1
  4472  1056  1055    1
  4473 10680 10679    1
  4474  5936  5938    1
  4475    31    32    2
  4476    31    12    1
  4477  7568  7569    1
  4478    72    74   am
  4479    72    56    1
  4480 12090 12089    1
  4481 12117 12116    1
  4482  6409  6407    1
  4483  3118  3116    1
  4484 11051 11052    1
  4485 13476 13475    1
  4486  7458  7457    1
  4487  5124  5123    1
  4488 10485 10484    1
  4489  1795  1793    1
  4490  9834  9833    1
  4491  8357  8358    1
  4492  3696  3695    1
  4493  9872  9874    1
  4494  2344  2342    1
  4495  7163  7165    1
  4496 13796 13798    1
  4497     5     6    1
  4498     5     3    1
  4499     5     7    1
  4500 13695 13694    1
  4501 11396 11397    1
  4502 11396 11398    1
  4503  3929  3931    1
  4504  8520  8519    1
  4505  7668  7667    1
  4506 13403 13405    1
  4507  5463  5462    1
  4508  3718  3716    1
  4509    74    75    1
  4510 10526 10528    1
  4511    75   102    1
  4512    75    81    1
  4513 12118 12116    1
  4514    28    27    1
  4515  9373  9371    1
  4516  7080  7079    1
  4517   150   149    1
  4518 12538 12536    1
  4519  5910  5909    1
  4520  5307  5306    1
  4521  3545  3546    1
  4522 11332 11330    1
  4523  4238  4239    1
  4524  6046  6044    1
  4525  6464  6466    1
  4526  5847  5846    1
  4527  6581  6582    1
  4528  6581  6583    1
  4529  7907  7909    1
  4530  7907  7908    1
  4531 13130 13131    1
  4532  5308  5306    1
  4533   190   189    1
  4534 10456 10454    1
  4535  9430  9428    1
  4536 10021 10019    1
  4537     1     3    1
  4538     1   195   am
  4539    27    30    1
  4540    27    21    1
  4541  6044  6045    1
  4542 10882 10880    1
  4543   530   532    1
  4544 11832 11831    1
  4545     9     3    1
  4546     9    11   am
  4547  7541  7543    1
  4548  7541  7542    1
  4549 13185 13184    1
  4550   106   108    1
  4551 12494 12496    1
  4552   403   401    1
  4553  3916  3914    1
  4554  8869  8867    1
  4555  7927  7925    1
  4556 11056 11054    1
  4557 10679 10681    1
  4558 10454 10455    1
  4559  1613  1615    1
  4560 11649 11648    1
  4561 13914 13913    1
  4562  7233  7232    1
  4563  1555  1553    1
  4564  1334  1335    1
  4565 10343 10345    1
  4566 10343 10344    1
  4567  5518  5516    1
  4568   818   819    1
  4569  1046  1048    1
  4570  1046  1047    1
  4571  9699  9698    1
  4572  5462  5464    1
  4573  5983  5981    1
  4574 11012 11013    1
  4575   434   435    1
  4576  7926  7925    1
  4577  8519  8521    1
  4578 12537 12536    1
  4579  8200  8198    1
  4580  6654  6653    1
  4581 11108 11110    1
  4582 11108 11109    1
  4583  1810  1808    1
  4584  6802  6800    1
  4585 10295 10297    1
  4586  9746  9747    1
  4587  8172  8171    1
  4588  4431  4430    1
  4589    56    57    1
  4590    56    62    1
  4591 13824 13823    1
  4592   147   149   am
  4593   147   148    2
  4594  9605  9607    1
  4595  9605  9606    1
  4596    82    81    1
  4597  2154  2153    1
  4598  7337  7338    1
  4599  6183  6182    1
  4600  9700  9698    1
  4601  9881  9882    1
  4602  9881  9883    1
  4603  5113  5111    1
  4604  7669  7667    1
  4605  3116  3117    1
  4606 12894 12893    1
  4607  4712  4713    1
  4608  4712  4714    1
  4609  7295  7297    1
  4610  9856  9854    1
  4611  9371  9372    1
  4612  2149  2147    1
  4613  9833  9835    1
  4614  3338  3340    1
  4615 13240 13238    1
  4616 13048 13046    1
  4617  8299  8297    1
  4618  1265  1266    1
  4619  1265  1267    1
  4620 13214 13215    1
  4621 13214 13216    1
  4622  6653  6655    1
  4623 11668 11666    1
  4624 12263 12264    1
  4625  6104  6106    1
  4626  6104  6105    1
  4627  7081  7079    1
  4628     3     4    1
  4629  9323  9325    1
  4630    12    11    1
  4631    12    18    1
  4632  8252  8254    1
  4633 13888 13886    1
  4634 11055 11054    1
  4635  9428  9429    1
  4636   189   195    1
  4637   189   187    1
  4638  1501  1499    1
  4639  1858  1856    1
  4640 11935 11933    1
  4641  9917  9919    1
  4642   102   103    2
  4643  5088  5087    1
  4644  7466  7467    1
  4645  7466  7468    1
  4646 12653 12654    1
  4647 12653 12655    1
  4648 11416 11414    1
  4649  3863  3864    1
  4650  3863  3865    1
  4651 11831 11833    1
  4652  1388  1390    1
  4653  4363  4361    1
  4654 11666 11667    1
  4655  2964  2963    1
  4656  4630  4628    1
  4657 10365 10364    1
  4658 12642 12641    1
  4659  9238  9236    1
  4660  5909  5911    1
  4661    81    85    1
  4662  1808  1809    1
  4663  7073  7074    1
  4664  9288  9287    1
  4665 13184 13186    1
  4666 10175 10176    1
  4667 11414 11415    1
  4668 12089 12091    1
  4669   883   881    1
  4670   149   151    1
  4671  5123  5125    1
  4672 10880 10881    1
  4673  1793  1794    1
  4674  8868  8867    1
  4675   386   387    1
  4676  6085  6083    1
  4677  3278  3280    1
  4678  3278  3279    1
  4679  5944  5942    1
  4680  6084  6083    1
  4681  3402  3401    1
  4682  2875  2873    1
  4683 12103 12101    1
  4684  9730  9728    1
  4685  5846  5848    1
  4686  7486  7484    1
  4687  2267  2269    1
  4688  2267  2268    1
  4689  5111  5112    1
  4690  8212  8210    1
  4691   503   505    1
  4692   503   504    1
  4693 12834 12833    1
  4694  9893  9895    1
  4695  9893  9894    1
  4696  6656  6657    1
  4697  6656  6658    1
  4698  9964  9962    1
  4699 11963 11965    1
  4700 11963 11964    1
  4701 10378 10376    1
  4702  4926  4925    1
  4703    63    62    1
  4704  6221  6222    1
  4705  6221  6223    1
  4706  1508  1509    1
  4707 10364 10366    1
  4708  8297  8298    1
  4709 12883 12881    1
  4710  4536  4535    1
  4711  3716  3717    1
  4712   164   163    2
  4713  7517  7518    1
  4714  5631  5630    1
  4715  9855  9854    1
  4716   401   402    1
  4717 10484 10486    1
  4718  9207  9206    1
  4719 13374 13373    1
  4720    70    68    1
  4721   214   212    1
  4722 13694 13696    1
  4723 10377 10376    1
  4724 13786 13784    1
  4725 11683 11681    1
  4726 11720 11722    1
  4727 11720 11721    1
  4728  7232  7234    1
  4729 12275 12276    1
  4730 12275 12277    1
  4731  4430  4432    1
  4732  7457  7459    1
  4733  9604  9602    1
  4734  2228  2229    1
  4735  2228  2230    1
  4736  9003  9002    1
  4737 13238 13239    1
  4738  2343  2342    1
  4739 13886 13887    1
  4740   492   491    1
  4741  8211  8210    1
  4742  3304  3302    1
  4743    22    21    1
  4744  9978  9977    1
  4745    11    14    1
  4746  3695  3697    1
  4747   212   213    1
  4748  9791  9793    1
  4749  9791  9792    1
  4750 12833 12835    1
  4751  8198  8199    1
  4752  9303  9302    1
  4753 13913 13915    1
  4754  5224  5222    1
  4755  1978  1976    1
  4756  2478  2477    1
  4757 12641 12643    1
  4758  2147  2148    1
  4759  6217  6215    1
  4760 10601 10602    1
  4761 10601 10603    1
  4762  6210  6209    1
  4763 13373 13375    1
  4764  5853  5852    1
  4765  4948  4946    1
  4766  6975  6974    1
  4767 12237 12236    1
  4768  4554  4553    1
  4769  8923  8921    1
  4770  5072  5073    1
  4771  5072  5074    1
  4772   423   422    1
  4773  9304  9302    1
  4774 11934 11933    1
  4775  4741  4739    1
  4776 11650 11648    1
  4777  4362  4361    1
  4778  6184  6182    1
  4779  3914  3915    1
  4780 10019 10020    1
  4781  2432  2434    1
  4782  2432  2433    1
  4783  4740  4739    1
  4784  6129  6128    1
  4785  2153  2155    1
  4786  9289  9287    1
  4787  9237  9236    1
  4788   195   196    2
  4789 10103 10105    1
  4790 10103 10104    1
  4791 13081 13079    1
  4792  7911  7910    1
  4793  1553  1554    1
  4794 10587 10586    1
  4795  6800  6801    1
  4796  9114  9113    1
  4797  9091  9089    1
  4798 10588 10586    1
  4799   422   424    1
  4800 13080 13079    1
  4801 13789 13787    1
  4802  6849  6848    1
  4803 13315 13313    1
  4804  3869  3871    1
  4805  3869  3870    1
  4806  5942  5943    1
  4807  4628  4629    1
  4808  3401  3403    1
  4809 12882 12881    1
  4810  3785  3786    1
  4811  3785  3787    1
  4812  9979  9977    1
  4813   491   493    1
  4814  6850  6848    1
  4815 12102 12101    1
  4816    21    18    1
  4817    21    23    1
  4818  7484  7485    1
  4819  8065  8063    1
  4820  1856  1857    1
  4821  6215  6216    1
  4822  6336  6335    1
  4823  9004  9002    1
  4824 12676 12674    1
  4825  5223  5222    1
  4826    62    68    1
  4827    62    64    1
  4828  3639  3638    1
  4829  1002  1001    1
  4830   160   159    1
  4831  7910  7912    1
  4832 12838 12836    1
  4833 12674 12675    1
  4834  9602  9603    1
  4835 13823 13825    1
  4836  5630  5632    1
  4837 13368 13367    1
  4838  6209  6211    1
  4839  9962  9963    1
  4840  6398  6400    1
  4841  6398  6399    1
  4842 12893 12895    1
  4843  2963  2965    1
  4844 12368 12370    1
  4845 12368 12369    1
  4846  5087  5089    1
  4847 10290 10289    1
  4848  9675  9674    1
  4849  6213  6212    1
  4850  6772  6770    1
  4851  1977  1976    1
  4852 10789 10787    1
  4853  8881  8879    1
  4854 13024 13022    1
  4855  8921  8922    1
  4856  8488  8486    1
  4857   393   392    1
  4858  1499  1500    1
  4859  9707  9708    1
  4860  9707  9709    1
  4861  9674  9676    1
  4862 13046 13047    1
  4863  5852  5854    1
  4864  5711  5712    1
  4865  5711  5713    1
  4866  3362  3364    1
  4867  3362  3363    1
  4868   394   392    1
  4869  6789  6788    1
  4870  6712  6710    1
  4871  3291  3290    1
  4872  7971  7970    1
  4873   187   188    1
  4874   187   185   am
  4875  4925  4927    1
  4876 12390 12389    1
  4877  1837  1835    1
  4878   112   111    1
  4879  6638  6639    1
  4880  6638  6640    1
  4881 12236 12238    1
  4882  6415  6413    1
  4883 13830 13829    1
  4884 10815 10814    1
  4885   881   882    1
  4886  6649  6647    1
  4887 13787 13788    1
  4888  7383  7382    1
  4889  6349  6347    1
  4890  3208  3206    1
  4891 12660 12659    1
  4892    18    19    1
  4893    18    20    1
  4894 10787 10788    1
  4895  8064  8063    1
  4896 11682 11681    1
  4897  1836  1835    1
  4898  8743  8741    1
  4899  4535  4537    1
  4900  4120  4118    1
  4901  4946  4947    1
  4902  5646  5645    1
  4903  5268  5267    1
  4904  7483  7481    1
  4905  3480  3479    1
  4906   108   109    1
  4907   108   111    1
  4908   108   110    1
  4909 13313 13314    1
  4910 10496 10498    1
  4911 10496 10497    1
  4912  3302  3303    1
  4913    15    14    1
  4914  2873  2874    1
  4915 10708 10706    1
  4916  3205  3203    1
  4917  5568  5567    1
  4918  8880  8879    1
  4919  1003  1001    1
  4920  9156  9155    1
  4921  3290  3292    1
  4922    68    71    1
  4923    68    69    1
  4924  9075  9074    1
  4925  4719  4718    1
  4926 11856 11855    1
  4927  9206  9208    1
  4928 12553 12551    1
  4929 13785 13784    1
  4930 12836 12837    1
  4931  9728  9729    1
  4932  4210  4208    1
  4933  9862  9860    1
  4934  9300  9299    1
  4935 13831 13829    1
  4936  5716  5714    1
  4937  4209  4208    1
  4938  2952  2951    1
  4939   939   938    1
  4940  6460  6458    1
  4941  6647  6648    1
  4942   673   671    1
  4943  9087  9086    1
  4944  6335  6337    1
  4945  1281  1280    1
  4946  1223  1225    1
  4947  1223  1224    1
  4948  8487  8486    1
  4949  7208  7210    1
  4950  7208  7209    1
  4951  5269  5267    1
  4952  8047  8045    1
  4953  5647  5645    1
  4954 10010 10011    1
  4955 10010 10012    1
  4956  4343  4344    1
  4957  4343  4345    1
  4958  9259  9257    1
  4959  6711  6710    1
  4960  6788  6790    1
  4961  4710  4709    1
  4962    93    91    1
  4963  2450  2452    1
  4964  2450  2451    1
  4965  5567  5569    1
  4966   940   938    1
  4967  1300  1298    1
  4968  9860  9861    1
  4969  3177  3176    1
  4970  2956  2954    1
  4971  7038  7037    1
  4972   162   159    1
  4973  1411  1409    1
  4974    14    16    1
  4975    14    17    1
  4976  3481  3479    1
  4977  6128  6130    1
  4978  3346  3344    1
  4979 10133 10135    1
  4980 10133 10134    1
  4981 10958 10960    1
  4982 10958 10959    1
  4983 12552 12551    1
  4984  4553  4555    1
  4985 12303 12302    1
  4986  6212  6214    1
  4987  9115  9113    1
  4988  9188  9190    1
  4989  9188  9189    1
  4990  2477  2479    1
  4991  6974  6976    1
  4992 10569 10568    1
  4993  7952  7953    1
  4994  7952  7954    1
  4995  5604  5603    1
  4996   113   111    1
  4997  6501  6500    1
  4998   163   151    1
  4999   163   165   am
  5000  3213  3212    1
  5001  3212  3214    1
  5002 13023 13022    1
  5003   186   185    2
  5004 12555 12554    1
  5005  5038  5036    1
  5006 13569 13568    1
  5007 10278 10277    1
  5008  1597  1595    1
  5009  9090  9089    1
  5010  6591  6590    1
  5011  2080  2078    1
  5012  7587  7586    1
  5013  3640  3638    1
  5014 13800 13799    1
  5015  1595  1596    1
  5016  8088  8087    1
  5017  8839  8837    1
  5018 11855 11857    1
  5019  7481  7482    1
  5020  7382  7384    1
  5021  7878  7877    1
  5022   111   114    1
  5023  9088  9086    1
  5024  1452  1451    1
  5025  3852  3851    1
  5026  6691  6689    1
  5027 11082 11081    1
  5028  6770  6771    1
  5029  9266  9267    1
  5030  9266  9268    1
  5031  6224  6225    1
  5032  6224  6226    1
  5033 11919 11918    1
  5034  8046  8045    1
  5035  2979  2978    1
  5036  3176  3178    1
  5037  2079  2078    1
  5038  5037  5036    1
  5039   185   166    1
  5040  6968  6970    1
  5041  6968  6969    1
  5042  4720  4718    1
  5043  6459  6458    1
  5044  7037  7039    1
  5045  1168  1166    1
  5046   151   152    1
  5047   151   153    1
  5048  6180  6179    1
  5049  3430  3428    1
  5050  9155  9157    1
  5051  3576  3575    1
  5052  2951  2953    1
  5053  3862  3860    1
  5054  5181  5180    1
  5055 13369 13367    1
  5056  3219  3218    1
  5057  7608  7607    1
  5058  3861  3860    1
  5059    92    91    1
  5060  8937  8936    1
  5061    85    91    1
  5062    85    86    1
  5063    85    87    1
  5064  6347  6348    1
  5065   159   161    1
  5066   159   153    1
  5067  1463  1464    1
  5068  1463  1465    1
  5069 11184 11183    1
  5070  4773  4772    1
  5071 11979 11978    1
  5072 12659 12661    1
  5073 12831 12830    1
  5074  8741  8742    1
  5075  5603  5605    1
  5076  7972  7970    1
  5077 13312 13310    1
  5078  1166  1167    1
  5079 13650 13649    1
  5080  4312  4310    1
  5081 10291 10289    1
  5082 13738 13736    1
  5083  6690  6689    1
  5084  7065  7064    1
  5085  2978  2980    1
  5086    67    64    1
  5087 11816 11818    1
  5088 11816 11817    1
  5089 10568 10570    1
  5090  3203  3204    1
  5091  6502  6500    1
  5092  7470  7469    1
  5093 11268 11267    1
  5094  2520  2519    1
  5095 10707 10706    1
  5096 12389 12391    1
  5097  1592  1594    1
  5098  1592  1593    1
  5099  1298  1299    1
  5100  1339  1337    1
  5101  3737  3739    1
  5102  3737  3738    1
  5103  8086  8084    1
  5104 11081 11083    1
  5105 13736 13737    1
  5106 13649 13651    1
  5107  9257  9258    1
  5108  4118  4119    1
  5109  5002  5000    1
  5110  8938  8936    1
  5111 13674 13673    1
  5112 10814 10816    1
  5113  4269  4268    1
  5114  1451  1453    1
  5115  9076  9074    1
  5116  9299  9301    1
  5117  9057  9056    1
  5118  3206  3207    1
  5119  2955  2954    1
  5120    24    23    1
  5121    91    94    1
  5122  4724  4726    1
  5123  4724  4725    1
  5124  7586  7588    1
  5125  4268  4270    1
  5126 11314 11312    1
  5127  4310  4311    1
  5128 13567 13565    1
  5129  8103  8102    1
  5130  6413  6414    1
  5131  3049  3047    1
  5132    64    66    1
  5133    64    65    1
  5134  2886  2885    1
  5135  7724  7725    1
  5136  7724  7726    1
  5137   671   672    1
  5138  8778  8777    1
  5139 12832 12830    1
  5140 12135 12134    1
  5141   167   166    1
  5142  4533  4532    1
  5143 12709 12707    1
  5144 12554 12556    1
  5145  1414  1412    1
  5146   705   704    1
  5147   522   521    1
  5148  1172  1173    1
  5149  1172  1174    1
  5150  3474  3473    1
  5151  6589  6587    1
  5152  3047  3048    1
  5153 12136 12134    1
  5154 12550 12548    1
  5155  5025  5024    1
  5156 12302 12304    1
  5157  7471  7469    1
  5158  1282  1280    1
  5159  5714  5715    1
  5160 10277 10279    1
  5161  7877  7879    1
  5162  6292  6290    1
  5163  6290  6291    1
  5164 11978 11980    1
  5165    23    25    1
  5166    23    26    1
  5167   992   994    1
  5168   992   993    1
  5169 11179 11177    1
  5170 11169 11168    1
  5171  8188  8186    1
  5172  3473  3475    1
  5173  8387  8388    1
  5174  8387  8389    1
  5175 11799 11798    1
  5176  2749  2747    1
  5177  4755  4754    1
  5178  8714  8716    1
  5179  8714  8715    1
  5180 12582 12581    1
  5181    88    87    1
  5182 10240 10238    1
  5183  4709  4711    1
  5184  3025  3023    1
  5185  8295  8294    1
  5186  3218  3220    1
  5187  8087  8089    1
  5188  3275  3276    1
  5189  3275  3277    1
  5190 10058 10059    1
  5191 10058 10060    1
  5192  8838  8837    1
  5193 13849 13847    1
  5194  6925  6923    1
  5195 12561 12560    1
  5196 13568 13570    1
  5197  7066  7064    1
  5198  1412  1413    1
  5199  3851  3853    1
  5200  3435  3434    1
  5201 13801 13799    1
  5202  3345  3344    1
  5203  3492  3491    1
  5204  2748  2747    1
  5205  1338  1337    1
  5206  4754  4756    1
  5207  1522  1520    1
  5208  2521  2519    1
  5209 11798 11800    1
  5210  1409  1410    1
  5211  6751  6749    1
  5212  5182  5180    1
  5213  9943  9941    1
  5214   847   845    1
  5215  2202  2201    1
  5216  1489  1487    1
  5217  8084  8085    1
  5218  4597  4595    1
  5219 10182 10181    1
  5220   979   977    1
  5221 13470 13469    1
  5222  3439  3437    1
  5223 11168 11170    1
  5224  3575  3577    1
  5225  6179  6181    1
  5226  3336  3335    1
  5227 11942 11943    1
  5228 11942 11944    1
  5229  9306  9305    1
  5230  6590  6592    1
  5231 11918 11920    1
  5232 12560 12562    1
  5233   156   155    1
  5234  3924  3923    1
  5235  6261  6260    1
  5236    89    87    1
  5237  2887  2885    1
  5238  8777  8779    1
  5239  5211  5210    1
  5240  5976  5975    1
  5241  3337  3335    1
  5242    87    90    1
  5243  3428  3429    1
  5244  9671  9672    1
  5245  9671  9673    1
  5246 13311 13310    1
  5247   165   166    1
  5248   165   168    1
  5249   166   172    1
  5250 10638 10637    1
  5251   153   155    1
  5252   153   154    1
  5253  5595  5594    1
  5254 11183 11185    1
  5255  5210  5212    1
  5256 13614 13613    1
  5257  3493  3491    1
  5258   521   523    1
  5259 12688 12686    1
  5260  9028  9026    1
  5261  2656  2654    1
  5262 13031 13033    1
  5263 13031 13032    1
  5264  1252  1250    1
  5265  2988  2987    1
  5266  7607  7609    1
  5267  4534  4532    1
  5268  3613  3611    1
  5269  5975  5977    1
  5270  2413  2411    1
  5271  5378  5379    1
  5272  5378  5380    1
  5273  5000  5001    1
  5274  4884  4883    1
  5275  9056  9058    1
  5276 11312 11313    1
  5277   704   706    1
  5278  4774  4772    1
  5279  7897  7895    1
  5280  3437  3438    1
  5281  8186  8187    1
  5282  1698  1697    1
  5283  1130  1132    1
  5284  1130  1131    1
  5285  2144  2145    1
  5286  2144  2146    1
  5287  7684  7682    1
  5288 13469 13471    1
  5289  2201  2203    1
  5290 13437 13436    1
  5291   744   743    1
  5292 13673 13675    1
  5293 11177 11178    1
  5294 13288 13286    1
  5295   845   846    1
  5296 12279 12278    1
  5297  4420  4418    1
  5298  6749  6750    1
  5299  2128  2126    1
  5300  1006  1004    1
  5301  8124  8123    1
  5302  3477  3476    1
  5303  2041  2039    1
  5304 12548 12549    1
  5305  6923  6924    1
  5306  1005  1004    1
  5307  8571  8570    1
  5308   333   332    1
  5309  9826  9824    1
  5310  5594  5596    1
  5311   285   284    1
  5312  1302  1301    1
  5313 12707 12708    1
  5314  9941  9942    1
  5315 11267 11269    1
  5316 10183 10181    1
  5317  4212  4211    1
  5318 12444 12443    1
  5319  6431  6432    1
  5320  6431  6433    1
  5321  5971  5969    1
  5322  3024  3023    1
  5323  2347  2345    1
  5324  6704  6706    1
  5325  6704  6705    1
  5326  8049  8048    1
  5327 12267 12266    1
  5328 13587 13586    1
  5329  1761  1760    1
  5330 13114 13112    1
  5331 10558 10556    1
  5332  3476  3478    1
  5333  7895  7896    1
  5334 13305 13304    1
  5335  5026  5024    1
  5336   179   177    1
  5337 11387 11388    1
  5338 11387 11389    1
  5339  2655  2654    1
  5340  8572  8570    1
  5341 13306 13304    1
  5342  6260  6262    1
  5343 12687 12686    1
  5344  8102  8104    1
  5345  3552  3551    1
  5346  9763  9761    1
  5347 12443 12445    1
  5348  8125  8123    1
  5349 13565 13566    1
  5350  8908  8906    1
  5351  1487  1488    1
  5352 10470 10469    1
  5353  3115  3113    1
  5354  4596  4595    1
  5355   567   566    1
  5356 12268 12266    1
  5357  6587  6588    1
  5358  1520  1521    1
  5359 11719 11717    1
  5360  5651  5653    1
  5361  5651  5652    1
  5362  8007  8006    1
  5363  6634  6632    1
  5364 10080 10079    1
  5365 10556 10557    1
  5366 11718 11717    1
  5367 12843 12842    1
  5368 13847 13848    1
  5369  4294  4292    1
  5370 13873 13871    1
  5371  1324  1322    1
  5372  2259  2258    1
  5373  5772  5771    1
  5374  2854  2852    1
  5375  3330  3329    1
  5376  4419  4418    1
  5377   527   529    1
  5378   527   528    1
  5379  8006  8008    1
  5380  1729  1727    1
  5381 10238 10239    1
  5382  8152  8150    1
  5383  9305  9307    1
  5384  6383  6385    1
  5385  6383  6384    1
  5386 10700 10701    1
  5387 10700 10702    1
  5388 12581 12583    1
  5389  3412  3410    1
  5390  1912  1910    1
  5391 13056 13055    1
  5392  8167  8165    1
  5393  2784  2783    1
  5394  3926  3927    1
  5395  3926  3928    1
  5396  2785  2783    1
  5397  1303  1301    1
  5398  5233  5231    1
  5399  3612  3611    1
  5400  9798  9797    1
  5401  8294  8296    1
  5402  2039  2040    1
  5403 10195 10193    1
  5404  5231  5232    1
  5405  2892  2891    1
  5406  7683  7682    1
  5407   155   157    1
  5408   155   158    1
  5409  7407  7406    1
  5410 12474 12473    1
  5411  3434  3436    1
  5412  2411  2412    1
  5413  4292  4293    1
  5414 13613 13615    1
  5415  9213  9212    1
  5416 13112 13113    1
  5417 13107 13106    1
  5418 10193 10194    1
  5419  4622  4624    1
  5420  4622  4623    1
  5421  2127  2126    1
  5422 13005 13004    1
  5423  9556  9554    1
  5424 10469 10471    1
  5425  1251  1250    1
  5426  4249  4247    1
  5427   977   978    1
  5428  8048  8050    1
  5429  2987  2989    1
  5430   176   175    1
  5431  5986  5984    1
  5432 13871 13872    1
  5433  8791  8789    1
  5434   743   745    1
  5435  2891  2893    1
  5436  9026  9027    1
  5437  3314  3315    1
  5438  3314  3316    1
  5439  4146  4145    1
  5440  7306  7304    1
  5441 10637 10639    1
  5442 12726 12725    1
  5443 11220 11219    1
  5444 10216 10214    1
  5445   875   876    1
  5446   875   877    1
  5447   433   431    1
  5448 13586 13588    1
  5449  2992  2990    1
  5450  3923  3925    1
  5451  2241  2240    1
  5452  7264  7262    1
  5453 12844 12842    1
  5454 13546 13544    1
  5455  5415  5414    1
  5456  8711  8712    1
  5457  8711  8713    1
  5458 12621 12620    1
  5459    94    95    1
  5460    94    96    1
  5461  3959  3961    1
  5462  3959  3960    1
  5463  4211  4213    1
  5464  8150  8151    1
  5465   284   286    1
  5466  7175  7177    1
  5467  7175  7176    1
  5468   334   332    1
  5469  9554  9555    1
  5470  3113  3114    1
  5471  1697  1699    1
  5472  4885  4883    1
  5473  6892  6890    1
  5474  1911  1910    1
  5475  2008  2006    1
  5476   344   346    1
  5477   344   345    1
  5478  6891  6890    1
  5479  7387  7385    1
  5480  2258  2260    1
  5481  6561  6560    1
  5482  4783  4781    1
  5483  6633  6632    1
  5484  2242  2240    1
  5485   246   245    1
  5486  3411  3410    1
  5487  2116  2114    1
  5488  1819  1817    1
  5489  5502  5501    1
  5490  9761  9762    1
  5491  5503  5501    1
  5492  2361  2360    1
  5493  9212  9214    1
  5494 12852 12851    1
  5495  3551  3553    1
  5496 13436 13438    1
  5497 12585 12584    1
  5498  8685  8684    1
  5499 13287 13286    1
  5500  2345  2346    1
  5501  6235  6233    1
  5502 12278 12280    1
  5503  7140  7139    1
  5504  9013  9011    1
  5505 11464 11462    1
  5506  2853  2852    1
  5507  8437  8435    1
  5508  8165  8166    1
  5509  8789  8790    1
  5510  1760  1762    1
  5511  8901  8900    1
  5512  4247  4248    1
  5513  5189  5190    1
  5514  5189  5191    1
  5515  2539  2537    1
  5516 11571 11570    1
  5517  1727  1728    1
  5518  2538  2537    1
  5519  4402  4400    1
  5520  9869  9871    1
  5521  9869  9870    1
  5522   432   431    1
  5523  4781  4782    1
  5524  2360  2362    1
  5525  3046  3044    1
  5526  9824  9825    1
  5527  1322  1323    1
  5528   508   506    1
  5529  5311  5309    1
  5530 13108 13106    1
  5531   566   568    1
  5532  2920  2918    1
  5533 10079 10081    1
  5534  5969  5970    1
  5535   169   168    1
  5536  7448  7449    1
  5537  7448  7450    1
  5538 13291 13289    1
  5539  5208  5207    1
  5540  6237  6236    1
  5541   168   170    1
  5542   168   171    1
  5543  8493  8492    1
  5544  9797  9799    1
  5545  7301  7302    1
  5546  7301  7303    1
  5547  6228  6227    1
  5548  5845  5843    1
  5549  8492  8494    1
  5550  3408  3407    1
  5551  4273  4271    1
  5552 13503 13502    1
  5553  5771  5773    1
  5554  3329  3331    1
  5555 12473 12475    1
  5556  3621  3620    1
  5557  8906  8907    1
  5558 10793 10795    1
  5559 10793 10794    1
  5560  1949  1950    1
  5561  1949  1951    1
  5562  6814  6812    1
  5563   177   180    1
  5564   177   175    1
  5565   177   178    1
  5566   172   175    1
  5567   172   173    1
  5568   172   174    1
  5569  7783  7781    1
  5570 13502 13504    1
  5571  9891  9890    1
  5572  5774  5775    1
  5573  5774  5776    1
  5574 13004 13006    1
  5575  2990  2991    1
  5576  5033  5035    1
  5577  5033  5034    1
  5578 10143 10142    1
  5579 13055 13057    1
  5580  4639  4637    1
  5581  2869  2867    1
  5582 11219 11221    1
  5583 13545 13544    1
  5584  7357  7355    1
  5585  8361  8360    1
  5586 10224 10223    1
  5587   175   181    1
  5588  5309  5310    1
  5589  4145  4147    1
  5590  8900  8902    1
  5591  2994  2993    1
  5592 11462 11463    1
  5593  6048  6047    1
  5594 13720 13718    1
  5595  2899  2897    1
  5596    97    96    1
  5597  4012  4010    1
  5598  3018  3017    1
  5599 12586 12584    1
  5600  8882  8883    1
  5601  8882  8884    1
  5602  5984  5985    1
  5603  6163  6161    1
  5604  5110  5108    1
  5605  3828  3827    1
  5606  2469  2468    1
  5607 13053 13052    1
  5608  3044  3045    1
  5609 12307 12305    1
  5610 10798 10796    1
  5611  1818  1817    1
  5612 12727 12725    1
  5613 13207 13205    1
  5614 10173 10172    1
  5615  8698  8696    1
  5616 11929 11927    1
  5617  8403  8402    1
  5618  7263  7262    1
  5619  5209  5207    1
  5620 13478 13480    1
  5621 13478 13479    1
  5622  5800  5798    1
  5623  6236  6238    1
  5624  7406  7408    1
  5625  6338  6340    1
  5626  6338  6339    1
  5627  9717  9716    1
  5628  2115  2114    1
  5629 12240 12239    1
  5630  2613  2612    1
  5631  6703  6701    1
  5632  2934  2933    1
  5633  2614  2612    1
  5634 10750 10748    1
  5635  4799  4800    1
  5636  4799  4801    1
  5637  5414  5416    1
  5638  6229  6227    1
  5639 12639 12638    1
  5640  8435  8436    1
  5641  2546  2547    1
  5642  2546  2548    1
  5643  6233  6234    1
  5644 10142 10144    1
  5645 10419 10418    1
  5646  5843  5844    1
  5647  6047  6049    1
  5648  2375  2377    1
  5649  2375  2376    1
  5650  3074  3075    1
  5651  3074  3076    1
  5652  8456  8458    1
  5653  8456  8457    1
  5654  4307  4309    1
  5655  4307  4308    1
  5656 10508 10510    1
  5657 10508 10509    1
  5658 12997 12995    1
  5659  6161  6162    1
  5660  9745  9743    1
  5661 10214 10215    1
  5662  9831  9830    1
  5663 13548 13547    1
  5664  7304  7305    1
  5665  4234  4232    1
  5666  2526  2525    1
  5667  5798  5799    1
  5668  6560  6562    1
  5669  5388  5387    1
  5670  8684  8686    1
  5671  7689  7688    1
  5672   697   695    1
  5673   696   695    1
  5674 13918 13916    1
  5675  3407  3409    1
  5676 12637 12635    1
  5677 13916 13917    1
  5678  2868  2867    1
  5679  8536  8534    1
  5680    96    98    1
  5681 10748 10749    1
  5682  1803  1802    1
  5683  5695  5693    1
  5684  3827  3829    1
  5685 13525 13523    1
  5686  3017  3019    1
  5687  2525  2527    1
  5688  3620  3622    1
  5689 12017 12019    1
  5690 12017 12018    1
  5691  3958  3956    1
  5692  4560  4559    1
  5693 13205 13206    1
  5694 12620 12622    1
  5695  6446  6448    1
  5696  6446  6447    1
  5697  9966  9965    1
  5698  8490  8489    1
  5699  9949  9947    1
  5700  7385  7386    1
  5701 13718 13719    1
  5702 13054 13052    1
  5703   245   247    1
  5704  7781  7782    1
  5705  2919  2918    1
  5706 11570 11572    1
  5707  4404  4403    1
  5708  2006  2007    1
  5709  9061  9059    1
  5710 12700 12698    1
  5711  4637  4638    1
  5712 13524 13523    1
  5713  6812  6813    1
  5714  3964  3962    1
  5715  9011  9012    1
  5716 10408 10406    1
  5717 12851 12853    1
  5718  4599  4598    1
  5719  7600  7598    1
  5720  2239  2237    1
  5721  9892  9890    1
  5722  4924  4922    1
  5723 10940 10942    1
  5724 10940 10941    1
  5725 12241 12239    1
  5726  4400  4401    1
  5727  6851  6852    1
  5728  6851  6853    1
  5729  7139  7141    1
  5730 10418 10420    1
  5731 10797 10796    1
  5732   506   507    1
  5733 13289 13290    1
  5734 10715 10717    1
  5735 10715 10716    1
  5736  2935  2933    1
  5737  4271  4272    1
  5738  2897  2898    1
  5739 10172 10174    1
  5740 12541 12539    1
  5741  5979  5978    1
  5742  4559  4561    1
  5743  9471  9470    1
  5744  9640  9638    1
  5745 12855 12854    1
  5746 10675 10673    1
  5747 12305 12306    1
  5748  9448  9446    1
  5749 10674 10673    1
  5750  5671  5669    1
  5751  4200  4199    1
  5752  9589  9587    1
  5753  5108  5109    1
  5754  6981  6980    1
  5755  3963  3962    1
  5756  6701  6702    1
  5757 12995 12996    1
  5758  9639  9638    1
  5759  8489  8491    1
  5760 13549 13547    1
  5761  2993  2995    1
  5762  2468  2470    1
  5763  9060  9059    1
  5764 13060 13058    1
  5765  7356  7355    1
  5766  8360  8362    1
  5767  5875  5873    1
  5768 11928 11927    1
  5769  9540  9539    1
  5770 10565 10566    1
  5771 10565 10567    1
  5772 12458 12459    1
  5773 12458 12460    1
  5774  8225  8226    1
  5775  8225  8227    1
  5776 11370 11369    1
  5777  5669  5670    1
  5778  1683  1682    1
  5779  3957  3956    1
  5780  6942  6941    1
  5781  4199  4201    1
  5782  2304  2303    1
  5783 10223 10225    1
  5784 12480 12479    1
  5785 11926 11924    1
  5786  9744  9743    1
  5787 12635 12636    1
  5788 13758 13757    1
  5789  9716  9718    1
  5790 13059 13058    1
  5791  2682  2681    1
  5792  9721  9719    1
  5793 11925 11924    1
  5794 11633 11634    1
  5795 11633 11635    1
  5796  5877  5876    1
  5797  7799  7800    1
  5798  7799  7801    1
  5799 11369 11371    1
  5800 10935 10934    1
  5801  3515  3517    1
  5802  3515  3516    1
  5803 10952 10953    1
  5804 10952 10954    1
  5805  4369  4367    1
  5806  5693  5694    1
  5807  5828  5829    1
  5808  5828  5830    1
  5809  4010  4011    1
  5810 10947 10946    1
  5811  9446  9447    1
  5812 13757 13759    1
  5813 12640 12638    1
  5814  6009  6008    1
  5815 13338 13337    1
  5816  8697  8696    1
  5817  2417  2419    1
  5818  2417  2418    1
  5819  1296  1295    1
  5820  5387  5389    1
  5821  4405  4403    1
  5822  1802  1804    1
  5823 11466 11465    1
  5824  9948  9947    1
  5825 12678 12677    1
  5826  6941  6943    1
  5827  4598  4600    1
  5828 10457 10458    1
  5829 10457 10459    1
  5830 12540 12539    1
  5831  8402  8404    1
  5832  8203  8201    1
  5833  5329  5327    1
  5834 11782 11780    1
  5835 11298 11297    1
  5836  8201  8202    1
  5837  9967  9965    1
  5838 10128 10127    1
  5839 11829 11828    1
  5840  2598  2597    1
  5841  1682  1684    1
  5842  6882  6881    1
  5843 12490 12488    1
  5844  5978  5980    1
  5845  1295  1297    1
  5846 12698 12699    1
  5847  7598  7599    1
  5848  4232  4233    1
  5849  1942  1940    1
  5850  8608  8606    1
  5851  4443  4442    1
  5852  7688  7690    1
  5853 12381 12380    1
  5854  9990  9989    1
  5855  2683  2681    1
  5856  7924  7922    1
  5857  6756  6755    1
  5858 10946 10948    1
  5859  6510  6509    1
  5860  5479  5477    1
  5861  4017  4016    1
  5862 10318 10316    1
  5863  6498  6497    1
  5864  9830  9832    1
  5865  8534  8535    1
  5866 11247 11246    1
  5867   810   809    1
  5868  2232  2231    1
  5869 10926 10925    1
  5870  7102  7100    1
  5871 10722 10721    1
  5872  2143  2141    1
  5873 11613 11612    1
  5874 12380 12382    1
  5875 11246 11248    1
  5876  9436  9434    1
  5877 10406 10407    1
  5878   499   497    1
  5879  4922  4923    1
  5880 10721 10723    1
  5881  4246  4244    1
  5882  2718  2717    1
  5883  2237  2238    1
  5884 11208 11207    1
  5885  1660  1658    1
  5886  1330  1328    1
  5887  9541  9539    1
  5888  9250  9248    1
  5889 12684 12683    1
  5890  1354  1352    1
  5891  9587  9588    1
  5892 13140 13139    1
  5893  4444  4442    1
  5894  3152  3153    1
  5895  3152  3154    1
  5896   181   184    1
  5897   181   182    1
  5898   181   183    1
  5899  8606  8607    1
  5900  7940  7941    1
  5901  7940  7942    1
  5902  4244  4245    1
  5903  4426  4424    1
  5904 12750 12749    1
  5905 13094 13096    1
  5906 13094 13095    1
  5907  7923  7922    1
  5908  9470  9472    1
  5909 10925 10927    1
  5910   723   722    1
  5911  4576  4574    1
  5912 12316 12314    1
  5913  6151  6149    1
  5914 10934 10936    1
  5915  2305  2303    1
  5916  7714  7712    1
  5917  2141  2142    1
  5918 11467 11465    1
  5919  5874  5873    1
  5920  8815  8813    1
  5921  1155  1154    1
  5922  2038  2036    1
  5923  8344  8342    1
  5924 10599 10598    1
  5925   722   724    1
  5926   417   416    1
  5927   902   903    1
  5928   902   904    1
  5929 10951 10949    1
  5930   416   418    1
  5931  4366  4364    1
  5932  6881  6883    1
  5933 13139 13141    1
  5934  1329  1328    1
  5935 12854 12856    1
  5936 11297 11299    1
  5937  9852  9851    1
  5938  6982  6980    1
  5939 13327 13325    1
  5940 11207 11209    1
  5941  9247  9245    1
  5942 11830 11828    1
  5943  5327  5328    1
  5944  6345  6344    1
  5945  5540  5542    1
  5946  5540  5541    1
  5947 13194 13193    1
  5948  9246  9245    1
  5949  8580  8579    1
  5950 11017 11015    1
  5951 10662 10661    1
  5952  6344  6346    1
  5953  4101  4100    1
  5954 12112 12110    1
  5955   988   986    1
  5956  1527  1526    1
  5957  3450  3449    1
  5958 12479 12481    1
  5959  9719  9720    1
  5960  7157  7159    1
  5961  7157  7158    1
  5962  6008  6010    1
  5963  8097  8096    1
  5964  8499  8498    1
  5965  9512  9513    1
  5966  9512  9514    1
  5967 10251 10250    1
  5968  1068  1067    1
  5969  1871  1873    1
  5970  1871  1872    1
  5971 10189 10187    1
  5972  2719  2717    1
  5973  8178  8177    1
  5974   220   218    1
  5975 12749 12751    1
  5976 10127 10129    1
  5977  5876  5878    1
  5978 13769 13771    1
  5979 13769 13770    1
  5980  4018  4016    1
  5981  8500  8498    1
  5982 12646 12644    1
  5983  5053  5051    1
  5984    98   100    1
  5985    98   101    1
  5986    98    99    1
  5987 10008 10007    1
  5988 13606 13604    1
  5989 10226 10227    1
  5990 10226 10228    1
  5991  8836  8834    1
  5992 11035 11033    1
  5993 10755 10754    1
  5994  4367  4368    1
  5995  4100  4102    1
  5996 13193 13195    1
  5997 12683 12685    1
  5998  8177  8179    1
  5999  6509  6511    1
  6000 12315 12314    1
  6001 10683 10682    1
  6002 10409 10410    1
  6003 10409 10411    1
  6004  2645  2647    1
  6005  2645  2646    1
  6006  3529  3527    1
  6007 13682 13683    1
  6008 13682 13684    1
  6009  7787  7789    1
  6010  7787  7788    1
  6011   219   218    1
  6012 12679 12677    1
  6013  8756  8757    1
  6014  8756  8758    1
  6015 13339 13337    1
  6016  5477  5478    1
  6017 12003 12002    1
  6018 13326 13325    1
  6019  6313  6311    1
  6020  1380  1379    1
  6021  7977  7976    1
  6022 11033 11034    1
  6023  3826  3824    1
  6024  3449  3451    1
  6025 13742 13744    1
  6026 13742 13743    1
  6027  2110  2108    1
  6028  1024  1022    1
  6029  3823  3821    1
  6030 11780 11781    1
  6031 12741 12740    1
  6032  1352  1353    1
  6033  6497  6499    1
  6034  1941  1940    1
  6035  8703  8702    1
  6036  8814  8813    1
  6037 12488 12489    1
  6038   606   605    1
  6039 10187 10188    1
  6040  7100  7101    1
  6041  4959  4958    1
  6042  8694  8693    1
  6043  2108  2109    1
  6044 12024 12023    1
  6045  6757  6755    1
  6046 10350 10349    1
  6047 10029 10028    1
  6048  2597  2599    1
  6049  5066  5067    1
  6050  5066  5068    1
  6051  8704  8702    1
  6052  2231  2233    1
  6053 10316 10317    1
  6054 12110 12111    1
  6055 10718 10719    1
  6056 10718 10720    1
  6057  9248  9249    1
  6058  1658  1659    1
  6059  1379  1381    1
  6060  6149  6150    1
  6061  5727  5726    1
  6062  1432  1430    1
  6063 10598 10600    1
  6064  4842  4841    1
  6065 11015 11016    1
  6066  9989  9991    1
  6067 10541 10543    1
  6068 10541 10542    1
  6069 13441 13439    1
  6070  9168  9167    1
  6071  4574  4575    1
  6072  8015  8017    1
  6073  8015  8016    1
  6074 12255 12254    1
  6075   270   269    1
  6076 10661 10663    1
  6077  8912  8914    1
  6078  8912  8913    1
  6079   552   551    1
  6080  2036  2037    1
  6081   987   986    1
  6082 10349 10351    1
  6083 11560 11558    1
  6084  3700  3698    1
  6085  8690  8692    1
  6086  8690  8691    1
  6087 11612 11614    1
  6088 10330 10328    1
  6089  1154  1156    1
  6090   497   498    1
  6091  5386  5384    1
  6092 10949 10950    1
  6093 12256 12254    1
  6094   809   811    1
  6095 12062 12064    1
  6096 12062 12063    1
  6097 12429 12428    1
  6098  7121  7122    1
  6099  7121  7123    1
  6100   553   551    1
  6101  4413  4412    1
  6102 11037 11036    1
  6103  7978  7976    1
  6104  8096  8098    1
  6105  9434  9435    1
  6106 12023 12025    1
  6107 12742 12740    1
  6108  8590  8588    1
  6109  8170  8168    1
  6110 10044 10043    1
  6111  8773  8771    1
  6112  4424  4425    1
  6113  4449  4448    1
  6114 13285 13283    1
  6115  8342  8343    1
  6116  8168  8169    1
  6117  5895  5894    1
  6118  4995  4994    1
  6119 12939 12938    1
  6120 13636 13634    1
  6121  5730  5729    1
  6122  7713  7712    1
  6123 11445 11444    1
  6124  8514  8513    1
  6125  5384  5385    1
  6126 11444 11446    1
  6127  3824  3825    1
  6128 13439 13440    1
  6129 12002 12004    1
  6130 13604 13605    1
  6131  8834  8835    1
  6132 10756 10754    1
  6133   481   479    1
  6134  9853  9851    1
  6135 11774 11776    1
  6136 11774 11775    1
  6137  4002  4001    1
  6138 10007 10009    1
  6139  8579  8581    1
  6140  1023  1022    1
  6141 13284 13283    1
  6142 10684 10682    1
  6143   619   617    1
  6144  4215  4214    1
  6145  6493  6491    1
  6146 10752 10751    1
  6147 12187 12185    1
  6148 12360 12359    1
  6149 13885 13883    1
  6150  7359  7358    1
  6151 12228 12227    1
  6152  1552  1550    1
  6153  1526  1528    1
  6154  2577  2576    1
  6155  9198  9197    1
  6156  6075  6074    1
  6157 13883 13884    1
  6158  4364  4365    1
  6159  3527  3528    1
  6160  2000  2002    1
  6161  2000  2001    1
  6162 11038 11036    1
  6163   921   920    1
  6164  6267  6266    1
  6165  4386  4385    1
  6166  4214  4216    1
  6167  4090  4088    1
  6168  8133  8132    1
  6169   269   271    1
  6170 10250 10252    1
  6171 10329 10328    1
  6172 10065 10064    1
  6173  4412  4414    1
  6174  4089  4088    1
  6175  3525  3524    1
  6176  3423  3422    1
  6177 10043 10045    1
  6178  8132  8134    1
  6179  3822  3821    1
  6180  1430  1431    1
  6181  9150  9149    1
  6182  6102  6101    1
  6183  8695  8693    1
  6184  1067  1069    1
  6185  8588  8589    1
  6186  1735  1733    1
  6187  9149  9151    1
  6188 12644 12645    1
  6189  4843  4841    1
  6190 11000 11002    1
  6191 11000 11001    1
  6192  6074  6076    1
  6193  5963  5964    1
  6194  5963  5965    1
  6195  9169  9167    1
  6196  2583  2582    1
  6197  7437  7436    1
  6198  1588  1586    1
  6199 13012 13010    1
  6200  3713  3714    1
  6201  3713  3715    1
  6202  8771  8772    1
  6203  6101  6103    1
  6204  2274  2273    1
  6205 11892 11891    1
  6206   920   922    1
  6207  7670  7672    1
  6208  7670  7671    1
  6209 12428 12430    1
  6210  5051  5052    1
  6211  6312  6311    1
  6212 11893 11891    1
  6213  9769  9767    1
  6214  6727  6725    1
  6215  5726  5728    1
  6216  9645  9644    1
  6217  9197  9199    1
  6218  4539  4538    1
  6219 13634 13635    1
  6220   684   683    1
  6221 12888 12887    1
  6222  8044  8042    1
  6223  5494  5492    1
  6224   804   803    1
  6225 12861 12860    1
  6226 11470 11468    1
  6227  8452  8450    1
  6228  7585  7583    1
  6229 12361 12359    1
  6230 13419 13418    1
  6231 11787 11786    1
  6232  4641  4640    1
  6233 12860 12862    1
  6234  8809  8807    1
  6235  5553  5552    1
  6236  4960  4958    1
  6237 11558 11559    1
  6238  5835  5834    1
  6239  5729  5731    1
  6240  1182  1181    1
  6241  6394  6392    1
  6242  3969  3968    1
  6243 12887 12889    1
  6244 12294 12293    1
  6245 10859 10860    1
  6246 10859 10861    1
  6247 13390 13388    1
  6248  6475  6473    1
  6249 11130 11129    1
  6250  3698  3699    1
  6251  9550  9548    1
  6252  9549  9548    1
  6253  4994  4996    1
  6254 11784 11783    1
  6255   605   607    1
  6256  9767  9768    1
  6257 11202 11201    1
  6258  8593  8591    1
  6259 11391 11390    1
  6260  1753  1751    1
  6261  6392  6393    1
  6262 13074 13073    1
  6263 10028 10030    1
  6264  4001  4003    1
  6265 13465 13463    1
  6266 11112 11111    1
  6267  8634  8633    1
  6268  1733  1734    1
  6269  5896  5894    1
  6270 12923 12924    1
  6271 12923 12925    1
  6272  1587  1586    1
  6273 11201 11203    1
  6274 12461 12463    1
  6275 12461 12462    1
  6276 11785 11783    1
  6277  5836  5834    1
  6278 11411 11412    1
  6279 11411 11413    1
  6280  1869  1868    1
  6281 12227 12229    1
  6282  6268  6266    1
  6283  6725  6726    1
  6284  4251  4250    1
  6285 13418 13420    1
  6286  2016  2015    1
  6287  2576  2578    1
  6288 10294 10292    1
  6289  7773  7772    1
  6290  4640  4642    1
  6291  6289  6287    1
  6292   639   638    1
  6293 10753 10751    1
  6294  7358  7360    1
  6295  1887  1886    1
  6296  4250  4252    1
  6297  8893  8891    1
  6298 10500 10499    1
  6299  4448  4450    1
  6300 11973 11972    1
  6301  8042  8043    1
  6302  8524  8522    1
  6303 10230 10229    1
  6304  5559  5558    1
  6305 10975 10973    1
  6306  2273  2275    1
  6307  1966  1964    1
  6308  5552  5554    1
  6309 12938 12940    1
  6310  3524  3526    1
  6311  5560  5558    1
  6312 11164 11162    1
  6313 13388 13389    1
  6314 11364 11363    1
  6315   617   618    1
  6316  4481  4483    1
  6317  4481  4482    1
  6318 13075 13073    1
  6319  4590  4589    1
  6320  5116  5114    1
  6321  4385  4387    1
  6322  8513  8515    1
  6323 13011 13010    1
  6324 11469 11468    1
  6325  4538  4540    1
  6326 10983 10982    1
  6327  1183  1181    1
  6328 12293 12295    1
  6329 13463 13464    1
  6330  1550  1551    1
  6331   805   803    1
  6332  8635  8633    1
  6333   479   480    1
  6334 10780 10778    1
  6335  5533  5531    1
  6336  7651  7649    1
  6337 11788 11786    1
  6338  7522  7520    1
  6339 13272 13271    1
  6340  2294  2295    1
  6341  2294  2296    1
  6342  7520  7521    1
  6343   683   685    1
  6344 11665 11663    1
  6345 11363 11365    1
  6346 12185 12186    1
  6347  8338  8336    1
  6348  6491  6492    1
  6349  8892  8891    1
  6350  6661  6659    1
  6351  3422  3424    1
  6352   378   377    1
  6353  1104  1103    1
  6354 10064 10066    1
  6355  3225  3224    1
  6356 12039 12038    1
  6357  7369  7367    1
  6358 13903 13901    1
  6359  9693  9692    1
  6360  2736  2735    1
  6361  1666  1664    1
  6362 10229 10231    1
  6363  9765  9764    1
  6364 10779 10778    1
  6365 11111 11113    1
  6366  8591  8592    1
  6367  8522  8523    1
  6368  6870  6869    1
  6369 10292 10293    1
  6370  1665  1664    1
  6371  8957  8959    1
  6372  8957  8958    1
  6373  9519  9518    1
  6374  5043  5042    1
  6375  7436  7438    1
  6376   833   835    1
  6377   833   834    1
  6378  9760  9758    1
  6379  6660  6659    1
  6380  6259  6257    1
  6381  8451  8450    1
  6382  7282  7280    1
  6383  3224  3226    1
  6384  2582  2584    1
  6385 12159 12158    1
  6386 11224 11222    1
  6387  7583  7584    1
  6388  6869  6871    1
  6389  6287  6288    1
  6390   907   905    1
  6391  1923  1922    1
  6392  8336  8337    1
  6393  7772  7774    1
  6394  6494  6496    1
  6395  6494  6495    1
  6396   265   263    1
  6397 13473 13472    1
  6398   263   264    1
  6399  5493  5492    1
  6400 12966 12965    1
  6401  9644  9646    1
  6402  4132  4130    1
  6403   574   572    1
  6404 10973 10974    1
  6405  4784  4786    1
  6406  4784  4785    1
  6407   300   299    1
  6408  6258  6257    1
  6409 11226 11225    1
  6410  9758  9759    1
  6411  1868  1870    1
  6412 11129 11131    1
  6413  3968  3970    1
  6414  1771  1769    1
  6415  7962  7961    1
  6416  3514  3512    1
  6417  9764  9766    1
  6418   301   299    1
  6419 10501 10499    1
  6420  4235  4236    1
  6421  4235  4237    1
  6422  4128  4127    1
  6423  1751  1752    1
  6424  8807  8808    1
  6425  8796  8795    1
  6426  4589  4591    1
  6427  7723  7721    1
  6428  6474  6473    1
  6429 11937 11936    1
  6430  3512  3513    1
  6431 11974 11972    1
  6432  1964  1965    1
  6433   257   259    1
  6434   257   258    1
  6435 11390 11392    1
  6436 11163 11162    1
  6437  2404  2402    1
  6438 13208 13209    1
  6439 13208 13210    1
  6440   309   308    1
  6441  1886  1888    1
  6442  1105  1103    1
  6443 12038 12040    1
  6444  3759  3758    1
  6445  7554  7553    1
  6446   377   379    1
  6447 11758 11756    1
  6448  7649  7650    1
  6449  9626  9628    1
  6450  9626  9627    1
  6451  4040  4041    1
  6452  4040  4042    1
  6453  2015  2017    1
  6454  7505  7506    1
  6455  7505  7507    1
  6456  5532  5531    1
  6457   913   911    1
  6458   817   815    1
  6459   550   548    1
  6460 13449 13448    1
  6461  7367  7368    1
  6462   638   640    1
  6463  6390  6389    1
  6464  9018  9017    1
  6465 11757 11756    1
  6466  1530  1529    1
  6467  2735  2737    1
  6468  4130  4131    1
  6469 13036 13034    1
  6470   816   815    1
  6471 11664 11663    1
  6472 12182 12184    1
  6473 12182 12183    1
  6474  9692  9694    1
  6475  4660  4658    1
  6476  7553  7555    1
  6477  2402  2403    1
  6478   912   911    1
  6479  9017  9019    1
  6480  4342  4340    1
  6481  9807  9806    1
  6482 11526 11525    1
  6483  8788  8786    1
  6484 11222 11223    1
  6485 10726 10724    1
  6486 13271 13273    1
  6487  4811  4813    1
  6488  4811  4812    1
  6489 13332 13331    1
  6490 11890 11888    1
  6491  7137  7136    1
  6492 12158 12160    1
  6493  8977  8975    1
  6494 11568 11567    1
  6495  5115  5114    1
  6496   534   533    1
  6497  2135  2136    1
  6498  2135  2137    1
  6499 12866 12867    1
  6500 12866 12868    1
  6501  8145  8144    1
  6502   905   906    1
  6503 12504 12503    1
  6504 12526 12524    1
  6505  2971  2969    1
  6506  5042  5044    1
  6507  5657  5658    1
  6508  5657  5659    1
  6509  2970  2969    1
  6510  4127  4129    1
  6511  8786  8787    1
  6512  7255  7253    1
  6513 11447 11448    1
  6514 11447 11449    1
  6515  8146  8144    1
  6516  7425  7424    1
  6517   547   545    1
  6518 13453 13451    1
  6519  7280  7281    1
  6520  7698  7697    1
  6521  7633  7631    1
  6522 10982 10984    1
  6523 13366 13364    1
  6524  7253  7254    1
  6525  6391  6389    1
  6526  2939  2941    1
  6527  2939  2940    1
  6528  3574  3572    1
  6529  3758  3760    1
  6530 10872 10871    1
  6531   308   310    1
  6532  8732  8733    1
  6533  8732  8734    1
  6534  4857  4856    1
  6535  4807  4805    1
  6536  2998  2996    1
  6537 13034 13035    1
  6538  3630  3629    1
  6539 12693 12692    1
  6540  8269  8267    1
  6541 13901 13902    1
  6542  3618  3617    1
  6543  1922  1924    1
  6544  8495  8497    1
  6545  8495  8496    1
  6546 12987 12986    1
  6547   445   443    1
  6548  9518  9520    1
  6549  9068  9069    1
  6550  9068  9070    1
  6551  9048  9047    1
  6552 10824 10823    1
  6553  7422  7421    1
  6554  2997  2996    1
  6555  1529  1531    1
  6556  5009  5011    1
  6557  5009  5010    1
  6558  9900  9899    1
  6559  1769  1770    1
  6560 12965 12967    1
  6561 13472 13474    1
  6562  7721  7722    1
  6563 11225 11227    1
  6564  7225  7223    1
  6565  4332  4331    1
  6566  5656  5654    1
  6567  8795  8797    1
  6568   572   573    1
  6569 12505 12503    1
  6570  5884  5882    1
  6571  7963  7961    1
  6572  7777  7775    1
  6573 13344 13343    1
  6574  2391  2390    1
  6575  4340  4341    1
  6576  4869  4868    1
  6577  4380  4379    1
  6578 13365 13364    1
  6579 10825 10823    1
  6580  5363  5364    1
  6581  5363  5365    1
  6582  9066  9065    1
  6583 13627 13625    1
  6584  4658  4659    1
  6585 12568 12566    1
  6586 11889 11888    1
  6587  6547  6545    1
  6588 11936 11938    1
  6589   443   444    1
  6590  4870  4868    1
  6591 11527 11525    1
  6592  5258  5259    1
  6593  5258  5260    1
  6594  7095  7094    1
  6595  4856  4858    1
  6596  2862  2861    1
  6597  2716  2714    1
  6598  7424  7426    1
  6599  9380  9382    1
  6600  9380  9381    1
  6601  7221  7220    1
  6602   244   242    1
  6603  9899  9901    1
  6604 11762 11764    1
  6605 11762 11763    1
  6606  9079  9077    1
  6607 13555 13553    1
  6608 11074 11072    1
  6609  6003  6002    1
  6610  4379  4381    1
  6611  5281  5279    1
  6612   546   545    1
  6613  9931  9929    1
  6614  9507  9506    1
  6615  2172  2171    1
  6616  7697  7699    1
  6617  9047  9049    1
  6618   533   535    1
  6619  2861  2863    1
  6620  7136  7138    1
  6621 10725 10724    1
  6622   548   549    1
  6623 13451 13452    1
  6624  2324  2325    1
  6625  2324  2326    1
  6626  9806  9808    1
  6627  1884  1883    1
  6628 13448 13450    1
  6629  3619  3617    1
  6630  8973  8972    1
  6631 13331 13333    1
  6632 12484 12482    1
  6633  3661  3659    1
  6634  9822  9821    1
  6635  6545  6546    1
  6636  8888  8890    1
  6637  8888  8889    1
  6638  5280  5279    1
  6639  5882  5883    1
  6640 10405 10403    1
  6641 12524 12525    1
  6642 11072 11073    1
  6643 11567 11569    1
  6644  9067  9065    1
  6645  6709  6707    1
  6646  6864  6863    1
  6647 10403 10404    1
  6648  8975  8976    1
  6649  4331  4333    1
  6650 10548 10547    1
  6651  7918  7916    1
  6652  7096  7094    1
  6653  3054  3053    1
  6654 11128 11126    1
  6655  7223  7224    1
  6656 13227 13226    1
  6657  5790  5789    1
  6658  7524  7523    1
  6659  3629  3631    1
  6660 10051 10049    1
  6661  9735  9734    1
  6662 12878 12879    1
  6663 12878 12880    1
  6664 12694 12692    1
  6665  7631  7632    1
  6666  3572  3573    1
  6667  7421  7423    1
  6668  1207  1205    1
  6669  8268  8267    1
  6670  3809  3811    1
  6671  3809  3810    1
  6672 13322 13323    1
  6673 13322 13324    1
  6674  3603  3602    1
  6675  7309  7307    1
  6676  2447  2448    1
  6677  2447  2449    1
  6678 12372 12371    1
  6679  5350  5348    1
  6680  8461  8459    1
  6681  6994  6992    1
  6682 13553 13554    1
  6683  9736  9734    1
  6684  6846  6845    1
  6685 12566 12567    1
  6686  8738  8739    1
  6687  8738  8740    1
  6688  5335  5333    1
  6689  6520  6518    1
  6690  3053  3055    1
  6691  3591  3590    1
  6692  8628  8627    1
  6693  9930  9929    1
  6694  2263  2261    1
  6695  8052  8051    1
  6696  8871  8870    1
  6697 10871 10873    1
  6698 13343 13345    1
  6699 11977 11975    1
  6700  6354  6353    1
  6701 13392 13391    1
  6702 12986 12988    1
  6703  3998  3999    1
  6704  3998  4000    1
  6705  1206  1205    1
  6706 13226 13228    1
  6707 10867 10865    1
  6708  4805  4806    1
  6709  2133  2132    1
  6710  8627  8629    1
  6711   304   302    1
  6712  9078  9077    1
  6713  3660  3659    1
  6714  7776  7775    1
  6715  2171  2173    1
  6716  9034  9032    1
  6717  4584  4583    1
  6718  2536  2534    1
  6719   853   851    1
  6720 12717 12716    1
  6721 10049 10050    1
  6722  8870  8872    1
  6723 11010 11009    1
  6724 13076 13078    1
  6725 13076 13077    1
  6726 12716 12718    1
  6727 10903 10901    1
  6728  1649  1650    1
  6729  1649  1651    1
  6730 10537 10535    1
  6731  7980  7979    1
  6732 12865 12863    1
  6733 10875 10874    1
  6734  6322  6320    1
  6735  2390  2392    1
  6736  2776  2774    1
  6737  5333  5334    1
  6738  2534  2535    1
  6739  7431  7430    1
  6740  5367  5366    1
  6741  7220  7222    1
  6742  9506  9508    1
  6743 12858 12857    1
  6744   261   260    1
  6745  7105  7103    1
  6746  5499  5498    1
  6747  2714  2715    1
  6748  3793  3791    1
  6749 13575 13574    1
  6750 13626 13625    1
  6751  3839  3841    1
  6752  3839  3840    1
  6753 13749 13748    1
  6754   298   296    1
  6755  5498  5500    1
  6756  6063  6062    1
  6757  4585  4583    1
  6758  5654  5655    1
  6759  7981  7979    1
  6760  7995  7994    1
  6761  1514  1516    1
  6762  1514  1515    1
  6763 12482 12483    1
  6764  1120  1118    1
  6765  2511  2510    1
  6766  6707  6708    1
  6767  7523  7525    1
  6768  5206  5204    1
  6769  5348  5349    1
  6770 12330 12329    1
  6771  7057  7055    1
  6772  9181  9179    1
  6773   242   243    1
  6774 10118 10119    1
  6775 10118 10120    1
  6776   260   262    1
  6777  1866  1865    1
  6778 11011 11009    1
  6779  6002  6004    1
  6780  6353  6355    1
  6781  1883  1885    1
  6782  8054  8055    1
  6783  8054  8056    1
  6784  9032  9033    1
  6785 12349 12347    1
  6786 12931 12929    1
  6787  3745  3743    1
  6788   302   303    1
  6789  3447  3446    1
  6790  7055  7056    1
  6791 11126 11127    1
  6792  8051  8053    1
  6793  5932  5930    1
  6794  9875  9877    1
  6795  9875  9876    1
  6796  6518  6519    1
  6797 12379 12377    1
  6798  2774  2775    1
  6799  2064  2063    1
  6800  7006  7004    1
  6801 12840 12839    1
  6802 10549 10547    1
  6803  1118  1119    1
  6804  9821  9823    1
  6805  8972  8974    1
  6806  7916  7917    1
  6807   476   478    1
  6808   476   477    1
  6809 10101 10100    1
  6810  7994  7996    1
  6811 11605 11603    1
  6812  1957  1955    1
  6813 11125 11123    1
  6814  3691  3689    1
  6815 12857 12859    1
  6816 11608 11606    1
  6817  7005  7004    1
  6818 12757 12755    1
  6819 13748 13750    1
  6820  4297  4295    1
  6821  3689  3690    1
  6822 11123 11124    1
  6823 13655 13657    1
  6824 13655 13656    1
  6825   851   852    1
  6826 11796 11795    1
  6827 13391 13393    1
  6828  5789  5791    1
  6829  2763  2762    1
  6830 13624 13622    1
  6831 11216 11217    1
  6832 11216 11218    1
  6833 12371 12373    1
  6834  6863  6865    1
  6835 13038 13037    1
  6836 11193 11192    1
  6837 12839 12841    1
  6838  1636  1634    1
  6839  3590  3592    1
  6840  1955  1956    1
  6841  7307  7308    1
  6842 12863 12864    1
  6843 13467 13466    1
  6844 12348 12347    1
  6845  6269  6270    1
  6846  6269  6271    1
  6847 10531 10529    1
  6848 10535 10536    1
  6849  4373  4374    1
  6850  4373  4375    1
  6851 10159 10157    1
  6852  3164  3166    1
  6853  3164  3165    1
  6854  4612  4610    1
  6855  4610  4611    1
  6856 13039 13037    1
  6857  3889  3887    1
  6858   326   328    1
  6859   326   327    1
  6860  3887  3888    1
  6861   980   981    1
  6862   980   982    1
  6863 10901 10902    1
  6864  9179  9180    1
  6865   317   318    1
  6866   317   319    1
  6867 12378 12377    1
  6868  2132  2134    1
  6869  3602  3604    1
  6870  6992  6993    1
  6871 10560 10559    1
  6872   970   968    1
  6873  8459  8460    1
  6874 11795 11797    1
  6875  6064  6062    1
  6876 13895 13897    1
  6877 13895 13896    1
  6878  6845  6847    1
  6879 11815 11813    1
  6880  7430  7432    1
  6881 10866 10865    1
  6882  2065  2063    1
  6883  2261  2262    1
  6884  9216  9215    1
  6885 10529 10530    1
  6886 11593 11591    1
  6887 10636 10634    1
  6888   447   446    1
  6889   752   753    1
  6890   752   754    1
  6891 11975 11976    1
  6892  8005  8003    1
  6893 12719 12721    1
  6894 12719 12720    1
  6895 11003 11004    1
  6896 11003 11005    1
  6897 11986 11984    1
  6898 12096 12095    1
  6899  5366  5368    1
  6900  1867  1865    1
  6901 10874 10876    1
  6902 11148 11147    1
  6903  8274  8273    1
  6904  3791  3792    1
  6905 11604 11603    1
  6906  2512  2510    1
  6907 13581 13580    1
  6908   472   470    1
  6909  1202  1203    1
  6910  1202  1204    1
  6911 13821 13820    1
  6912  7028  7030    1
  6913  7028  7029    1
  6914 13668 13667    1
  6915  5017  5015    1
  6916  9096  9095    1
  6917 12097 12095    1
  6918  9097  9095    1
  6919 13576 13574    1
  6920 11960 11962    1
  6921 11960 11961    1
  6922 11258 11259    1
  6923 11258 11260    1
  6924  6735  6734    1
  6925  6320  6321    1
  6926  3743  3744    1
  6927 10384 10382    1
  6928   199   197    1
  6929  5930  5931    1
  6930  1999  1997    1
  6931 11606 11607    1
  6932  3805  3803    1
  6933   470   471    1
  6934   968   969    1
  6935  8003  8004    1
  6936  7103  7104    1
  6937 13623 13622    1
  6938  1214  1216    1
  6939  1214  1215    1
  6940  5204  5205    1
  6941  8108  8110    1
  6942  8108  8109    1
  6943   198   197    1
  6944  6626  6627    1
  6945  6626  6628    1
  6946   296   297    1
  6947 10864 10862    1
  6948 12329 12331    1
  6949 12929 12930    1
  6950  7852  7850    1
  6951  2889  2888    1
  6952  4296  4295    1
  6953 13755 13754    1
  6954  7841  7843    1
  6955  7841  7842    1
  6956 10887 10886    1
  6957  4336  4334    1
  6958 13723 13721    1
  6959  3448  3446    1
  6960 12755 12756    1
  6961  2764  2762    1
  6962  6363  6362    1
  6963 10100 10102    1
  6964 11346 11345    1
  6965  9223  9221    1
  6966  1066  1064    1
  6967 11600 11601    1
  6968 11600 11602    1
  6969 13927 13925    1
  6970 11592 11591    1
  6971  5626  5624    1
  6972 12447 12446    1
  6973  4441  4439    1
  6974 10862 10863    1
  6975 11723 11725    1
  6976 11723 11724    1
  6977  7921  7919    1
  6978 13820 13822    1
  6979 13857 13856    1
  6980  4874  4876    1
  6981  4874  4875    1
  6982 11018 11020    1
  6983 11018 11019    1
  6984  9394  9392    1
  6985 11147 11149    1
  6986  8273  8275    1
  6987 11985 11984    1
  6988 11188 11186    1
  6989  8245  8243    1
  6990  3692  3694    1
  6991  3692  3693    1
  6992  5764  5762    1
  6993  5016  5015    1
  6994 11778 11777    1
  6995 10383 10382    1
  6996  5396  5398    1
  6997  5396  5397    1
  6998   489   488    1
  6999 10158 10157    1
  7000   526   524    1
  7001 11047 11045    1
  7002  9392  9393    1
  7003  1634  1635    1
  7004 11101 11099    1
  7005 13580 13582    1
  7006 12189 12188    1
  7007 13468 13466    1
  7008  6126  6125    1
  7009 13754 13756    1
  7010  2888  2890    1
  7011  8706  8705    1
  7012  2664  2663    1
  7013  8243  8244    1
  7014 10939 10937    1
  7015 12073 12071    1
  7016   205   203    1
  7017 11192 11194    1
  7018  4440  4439    1
  7019 10559 10561    1
  7020  1065  1064    1
  7021  7560  7559    1
  7022 13856 13858    1
  7023 13002 13001    1
  7024   446   448    1
  7025 11100 11099    1
  7026  9217  9215    1
  7027 11046 11045    1
  7028  2504  2506    1
  7029  2504  2505    1
  7030 10635 10634    1
  7031   488   490    1
  7032 12007 12005    1
  7033 13925 13926    1
  7034  2772  2771    1
  7035  6734  6736    1
  7036  9992  9994    1
  7037  9992  9993    1
  7038  9846  9845    1
  7039  3683  3685    1
  7040  3683  3684    1
  7041  1998  1997    1
  7042  9280  9278    1
  7043 12071 12072    1
  7044  7576  7574    1
  7045  9630  9629    1
  7046   410   411    1
  7047   410   412    1
  7048 12358 12356    1
  7049  4486  4484    1
  7050  1305  1304    1
  7051 10886 10888    1
  7052  1306  1304    1
  7053  5085  5084    1
  7054  6362  6364    1
  7055  9845  9847    1
  7056 10938 10937    1
  7057  2381  2383    1
  7058  2381  2382    1
  7059  5763  5762    1
  7060  9278  9279    1
  7061  2082  2081    1
  7062  7009  7007    1
  7063 13667 13669    1
  7064 13370 13371    1
  7065 13370 13372    1
  7066 11813 11814    1
  7067 12446 12448    1
  7068  8781  8780    1
  7069  3803  3804    1
  7070 10359 10358    1
  7071  2640  2639    1
  7072  7919  7920    1
  7073 11777 11779    1
  7074 13042 13040    1
  7075 11345 11347    1
  7076  9629  9631    1
  7077  6127  6125    1
  7078 12006 12005    1
  7079  5061  5060    1
  7080  4399  4397    1
  7081  6006  6005    1
  7082  7559  7561    1
  7083 13721 13722    1
  7084  7935  7934    1
  7085  2164  2162    1
  7086  6168  6167    1
  7087  7936  7934    1
  7088   665   667    1
  7089   665   666    1
  7090  7440  7439    1
  7091 13001 13003    1
  7092 11186 11187    1
  7093  6687  6686    1
  7094  2773  2771    1
  7095 12979 12977    1
  7096  5084  5086    1
  7097  8062  8060    1
  7098  6838  6836    1
  7099   203   204    1
  7100  9222  9221    1
  7101  2187  2186    1
  7102   688   686    1
  7103  2163  2162    1
  7104  4334  4335    1
  7105 12978 12977    1
  7106  5625  5624    1
  7107 11143 11141    1
  7108  7850  7851    1
  7109  3971  3973    1
  7110  3971  3972    1
  7111 11545 11543    1
  7112 12188 12190    1
  7113 12746 12748    1
  7114 12746 12747    1
  7115  1345  1343    1
  7116  3445  3443    1
  7117  9187  9185    1
  7118  2641  2639    1
  7119  2631  2630    1
  7120  5060  5062    1
  7121  7574  7575    1
  7122   524   525    1
  7123  5083  5081    1
  7124  2630  2632    1
  7125  5993  5995    1
  7126  5993  5994    1
  7127  1937  1939    1
  7128  1937  1938    1
  7129  8780  8782    1
  7130  8705  8707    1
  7131 12357 12356    1
  7132  7756  7754    1
  7133  4484  4485    1
  7134  1773  1772    1
  7135  1249  1247    1
  7136  6841  6839    1
  7137  6167  6169    1
  7138 10452 10451    1
  7139  2083  2081    1
  7140  8071  8069    1
  7141 11080 11078    1
  7142  8070  8069    1
  7143  9432  9431    1
  7144  2663  2665    1
  7145  6839  6840    1
  7146  6551  6552    1
  7147  6551  6553    1
  7148  7391  7392    1
  7149  7391  7393    1
  7150  7876  7874    1
  7151  7007  7008    1
  7152  2186  2188    1
  7153   235   233    1
  7154  3253  3251    1
  7155 11115 11114    1
  7156  5100  5099    1
  7157  1247  1248    1
  7158  9341  9342    1
  7159  9341  9343    1
  7160 11141 11142    1
  7161  4397  4398    1
  7162 13063 13061    1
  7163  2950  2948    1
  7164  3376  3374    1
  7165 13845 13844    1
  7166   561   560    1
  7167  3374  3375    1
  7168  2385  2384    1
  7169  5315  5317    1
  7170  5315  5316    1
  7171  7207  7205    1
  7172  7753  7751    1
  7173 13562 13564    1
  7174 13562 13563    1
  7175  6093  6092    1
  7176  1774  1772    1
  7177  6836  6837    1
  7178  8953  8951    1
  7179  9194  9195    1
  7180  9194  9196    1
  7181  6926  6928    1
  7182  6926  6927    1
  7183  4873  4871    1
  7184 10491 10490    1
  7185  1611  1610    1
  7186  6094  6092    1
  7187  4099  4097    1
  7188 10980 10979    1
  7189  7552  7550    1
  7190 11543 11544    1
  7191  2032  2030    1
  7192 12926 12927    1
  7193 12926 12928    1
  7194 13040 13041    1
  7195 13860 13859    1
  7196   509   510    1
  7197   509   511    1
  7198  9879  9878    1
  7199  1416  1415    1
  7200 11182 11180    1
  7201 12632 12634    1
  7202 12632 12633    1
  7203   686   687    1
  7204  7755  7754    1
  7205  1108  1106    1
  7206  1106  1107    1
  7207  4990  4988    1
  7208  6005  6007    1
  7209 12493 12491    1
  7210 10924 10922    1
  7211 10914 10913    1
  7212   233   234    1
  7213  2430  2429    1
  7214  8060  8061    1
  7215 10358 10360    1
  7216 10782 10781    1
  7217  4954  4952    1
  7218  2948  2949    1
  7219 10112 10114    1
  7220 10112 10113    1
  7221  6686  6688    1
  7222 11338 11336    1
  7223   562   560    1
  7224  9431  9433    1
  7225  7439  7441    1
  7226  7087  7085    1
  7227 13907 13908    1
  7228 13907 13909    1
  7229 11181 11180    1
  7230  3443  3444    1
  7231  9185  9186    1
  7232  4506  4505    1
  7233  4872  4871    1
  7234   855   854    1
  7235  2429  2431    1
  7236 12491 12492    1
  7237  4098  4097    1
  7238  2051  2053    1
  7239  2051  2052    1
  7240 11023 11021    1
  7241  2679  2678    1
  7242 10900 10898    1
  7243 10830 10829    1
  7244  3385  3383    1
  7245  5997  5996    1
  7246  2330  2331    1
  7247  2330  2332    1
  7248 10781 10783    1
  7249  4505  4507    1
  7250 13163 13165    1
  7251 13163 13164    1
  7252  3796  3794    1
  7253 10922 10923    1
  7254  8326  8324    1
  7255  2251  2249    1
  7256 10490 10492    1
  7257  2768  2770    1
  7258  2768  2769    1
  7259 11199 11198    1
  7260 13846 13844    1
  7261  3519  3518    1
  7262  2824  2822    1
  7263  7180  7178    1
  7264  8307  8306    1
  7265  8077  8075    1
  7266  1179  1178    1
  7267  5272  5270    1
  7268  1417  1415    1
  7269 13761 13760    1
  7270 12206 12208    1
  7271 12206 12207    1
  7272 11042 11043    1
  7273 11042 11044    1
  7274  5176  5174    1
  7275  2857  2855    1
  7276  9880  9878    1
  7277  3357  3356    1
  7278  1343  1344    1
  7279  9757  9755    1
  7280  1398  1397    1
  7281  7874  7875    1
  7282  7194  7193    1
  7283  3258  3257    1
  7284 12027 12026    1
  7285  5021  5023    1
  7286  5021  5022    1
  7287  8530  8528    1
  7288  1791  1790    1
  7289  4062  4061    1
  7290  7178  7179    1
  7291  5081  5082    1
  7292  2842  2840    1
  7293  1780  1778    1
  7294  9655  9653    1
  7295  8308  8306    1
  7296 10981 10979    1
  7297  7593  7592    1
  7298  7637  7639    1
  7299  7637  7638    1
  7300 10453 10451    1
  7301  2657  2658    1
  7302  2657  2659    1
  7303 13859 13861    1
  7304  3518  3520    1
  7305 11336 11337    1
  7306  8549  8550    1
  7307  8549  8551    1
  7308 11114 11116    1
  7309  7550  7551    1
  7310  6799  6797    1
  7311  2678  2680    1
  7312 13062 13061    1
  7313  9755  9756    1
  7314  4072  4070    1
  7315  3251  3252    1
  7316  4393  4391    1
  7317  1610  1612    1
  7318 11846 11847    1
  7319 11846 11848    1
  7320 10775 10776    1
  7321 10775 10777    1
  7322 10829 10831    1
  7323  1178  1180    1
  7324  5996  5998    1
  7325  6429  6428    1
  7326 13192 13190    1
  7327   854   856    1
  7328  3795  3794    1
  7329  1428  1427    1
  7330 12321 12320    1
  7331  5099  5101    1
  7332 11078 11079    1
  7333  7027  7025    1
  7334  8614  8612    1
  7335  5793  5792    1
  7336  8528  8529    1
  7337  9001  8999    1
  7338  4338  4337    1
  7339 12000 11999    1
  7340 11999 12001    1
  7341  7042  7040    1
  7342  3259  3257    1
  7343  1399  1397    1
  7344 11133 11132    1
  7345  7751  7752    1
  7346  6295  6293    1
  7347  2384  2386    1
  7348  2822  2823    1
  7349  4071  4070    1
  7350  1744  1742    1
  7351  6059  6061    1
  7352  6059  6060    1
  7353  9577  9575    1
  7354  7205  7206    1
  7355 11021 11022    1
  7356  7040  7041    1
  7357  9005  9007    1
  7358  9005  9006    1
  7359  2030  2031    1
  7360  8951  8952    1
  7361  7860  7859    1
  7362  6619  6617    1
  7363  5481  5480    1
  7364  4952  4953    1
  7365  8612  8613    1
  7366 12319 12317    1
  7367  4988  4989    1
  7368 13511 13513    1
  7369 13511 13512    1
  7370 12320 12322    1
  7371  8325  8324    1
  7372  4023  4022    1
  7373  7592  7594    1
  7374  4391  4392    1
  7375  5174  5175    1
  7376  9653  9654    1
  7377  2840  2841    1
  7378  5196  5195    1
  7379   634   632    1
  7380  1606  1604    1
  7381  3727  3725    1
  7382  7085  7086    1
  7383  3875  3877    1
  7384  3875  3876    1
  7385  9666  9665    1
  7386  9678  9677    1
  7387  9575  9576    1
  7388  3383  3384    1
  7389  3358  3356    1
  7390 10913 10915    1
  7391  6428  6430    1
  7392  1000   998    1
  7393 13446 13445    1
  7394  1861  1859    1
  7395  5546  5548    1
  7396  5546  5547    1
  7397  2249  2250    1
  7398 10773 10772    1
  7399  7277  7279    1
  7400  7277  7278    1
  7401 12352 12350    1
  7402  5214  5213    1
  7403 10898 10899    1
  7404 11132 11134    1
  7405  1779  1778    1
  7406 13191 13190    1
  7407  3636  3635    1
  7408 12935 12936    1
  7409 12935 12937    1
  7410  1319  1321    1
  7411  1319  1320    1
  7412 13442 13444    1
  7413 13442 13443    1
  7414  7900  7898    1
  7415  2461  2459    1
  7416  6156  6155    1
  7417  8075  8076    1
  7418  5215  5213    1
  7419  1427  1429    1
  7420  2855  2856    1
  7421   597   596    1
  7422  1909  1907    1
  7423  3230  3231    1
  7424  3230  3232    1
  7425  3635  3637    1
  7426  9665  9667    1
  7427  5270  5271    1
  7428  6797  6798    1
  7429  8447  8448    1
  7430  8447  8449    1
  7431 11198 11200    1
  7432  9684  9683    1
  7433  7026  7025    1
  7434  3378  3377    1
  7435  7193  7195    1
  7436 12026 12028    1
  7437  6147  6146    1
  7438  1860  1859    1
  7439  9460  9458    1
  7440 13760 13762    1
  7441 12769 12767    1
  7442 10054 10052    1
  7443  5794  5792    1
  7444  7161  7160    1
  7445  3033  3032    1
  7446  1972  1970    1
  7447  1627  1625    1
  7448 13447 13445    1
  7449  5480  5482    1
  7450  6618  6617    1
  7451  4791  4790    1
  7452  9000  8999    1
  7453   763   761    1
  7454  7271  7273    1
  7455  7271  7272    1
  7456  1626  1625    1
  7457 12922 12920    1
  7458  9677  9679    1
  7459  6293  6294    1
  7460  1790  1792    1
  7461  2077  2075    1
  7462  6888  6887    1
  7463  3379  3377    1
  7464  4061  4063    1
  7465 12087 12086    1
  7466  9652  9650    1
  7467  5401  5399    1
  7468  1373  1375    1
  7469  1373  1374    1
  7470  8386  8384    1
  7471  1765  1763    1
  7472  3725  3726    1
  7473  1219  1217    1
  7474 10772 10774    1
  7475 12318 12317    1
  7476  2421  2420    1
  7477  6574  6572    1
  7478  9913  9911    1
  7479 11150 11152    1
  7480 11150 11151    1
  7481  4636  4634    1
  7482  1970  1971    1
  7483  7162  7160    1
  7484 12291 12290    1
  7485 11281 11279    1
  7486 12808 12806    1
  7487  5197  5195    1
  7488  4337  4339    1
  7489  4022  4024    1
  7490 11838 11837    1
  7491 12767 12768    1
  7492   633   632    1
  7493  5427  5426    1
  7494  8091  8090    1
  7495  8368  8366    1
  7496 11684 11685    1
  7497 11684 11686    1
  7498  6912  6911    1
  7499  8385  8384    1
  7500  3772  3770    1
  7501 10052 10053    1
  7502  6597  6596    1
  7503  9142  9140    1
  7504  1217  1218    1
  7505  9940  9938    1
  7506  5399  5400    1
  7507  4776  4775    1
  7508   348   347    1
  7509 11061 11060    1
  7510 12325 12323    1
  7511  6913  6911    1
  7512 11546 11548    1
  7513 11546 11547    1
  7514  9140  9141    1
  7515  5003  5004    1
  7516  5003  5005    1
  7517  1742  1743    1
  7518  9243  9242    1
  7519  8354  8356    1
  7520  8354  8355    1
  7521 12351 12350    1
  7522  8366  8367    1
  7523  3831  3830    1
  7524  4790  4792    1
  7525  3032  3034    1
  7526   542   543    1
  7527   542   544    1
  7528  8761  8759    1
  7529 11280 11279    1
  7530  9683  9685    1
  7531   454   452    1
  7532 12290 12292    1
  7533  6572  6573    1
  7534  7859  7861    1
  7535  6858  6857    1
  7536   998   999    1
  7537  9650  9651    1
  7538  1604  1605    1
  7539  9664  9662    1
  7540   596   598    1
  7541 10687 10685    1
  7542  9659  9661    1
  7543  9659  9660    1
  7544   732   731    1
  7545  6595  6593    1
  7546  6596  6598    1
  7547  2459  2460    1
  7548  4635  4634    1
  7549 11062 11060    1
  7550  2287  2285    1
  7551  4570  4568    1
  7552  6146  6148    1
  7553  8248  8246    1
  7554 11761 11759    1
  7555  9911  9912    1
  7556  5183  5185    1
  7557  5183  5184    1
  7558  8353  8351    1
  7559  6593  6594    1
  7560 10685 10686    1
  7561 11946 11945    1
  7562 12086 12088    1
  7563  8760  8759    1
  7564  4423  4421    1
  7565 12534 12533    1
  7566  9242  9244    1
  7567  6155  6157    1
  7568   347   349    1
  7569 12920 12921    1
  7570   762   761    1
  7571  3854  3856    1
  7572  3854  3855    1
  7573  1907  1908    1
  7574 11947 11945    1
  7575  4727  4728    1
  7576  4727  4729    1
  7577 13679 13681    1
  7578 13679 13680    1
  7579  7898  7899    1
  7580  7887  7886    1
  7581 12099 12098    1
  7582  9458  9459    1
  7583 13698 13697    1
  7584  8247  8246    1
  7585 10201 10199    1
  7586  3830  3832    1
  7587  4775  4777    1
  7588  8090  8092    1
  7589  4893  4892    1
  7590  3133  3131    1
  7591  6281  6282    1
  7592  6281  6283    1
  7593  1234  1232    1
  7594 10246 10244    1
  7595 13266 13265    1
  7596  4743  4742    1
  7597 11433 11432    1
  7598  2496  2495    1
  7599   949   947    1
  7600  6859  6857    1
  7601   790   788    1
  7602 13648 13646    1
  7603 11432 11434    1
  7604 12806 12807    1
  7605 13676 13678    1
  7606 13676 13677    1
  7607  9164  9166    1
  7608  9164  9165    1
  7609  6887  6889    1
  7610  2075  2076    1
  7611  2420  2422    1
  7612  1763  1764    1
  7613 11586 11585    1
  7614  2446  2444    1
  7615  3774  3773    1
  7616 11767 11765    1
  7617  3993  3992    1
  7618 10036 10034    1
  7619  9938  9939    1
  7620  1272  1271    1
  7621  2495  2497    1
  7622  1929  1928    1
  7623 12533 12535    1
  7624 11839 11837    1
  7625  5515  5513    1
  7626 10244 10245    1
  7627  2357  2358    1
  7628  2357  2359    1
  7629  1232  1233    1
  7630 13646 13647    1
  7631  2912  2913    1
  7632  2912  2914    1
  7633 11361 11360    1
  7634  8352  8351    1
  7635 10199 10200    1
  7636  9662  9663    1
  7637 10539 10538    1
  7638  8960  8962    1
  7639  8960  8961    1
  7640 12323 12324    1
  7641   947   948    1
  7642  9327  9326    1
  7643  4744  4742    1
  7644  5742  5741    1
  7645  5426  5428    1
  7646  3770  3771    1
  7647  1462  1460    1
  7648  8238  8237    1
  7649 11759 11760    1
  7650  3191  3192    1
  7651  3191  3193    1
  7652  4421  4422    1
  7653  5130  5129    1
  7654   871   869    1
  7655  4518  4517    1
  7656 11820 11819    1
  7657   731   733    1
  7658   452   453    1
  7659 12098 12100    1
  7660  4569  4568    1
  7661  8577  8576    1
  7662  7644  7643    1
  7663  1460  1461    1
  7664  8237  8239    1
  7665 12758 12760    1
  7666 12758 12759    1
  7667  4834  4832    1
  7668 10326 10325    1
  7669  9402  9401    1
  7670 13309 13307    1
  7671  3994  3992    1
  7672  9818  9820    1
  7673  9818  9819    1
  7674 10921 10919    1
  7675  2285  2286    1
  7676  4892  4894    1
  7677   873   872    1
  7678  4832  4833    1
  7679  6778  6776    1
  7680 11904 11903    1
  7681 11086 11084    1
  7682 11921 11923    1
  7683 11921 11922    1
  7684  4186  4184    1
  7685  1494  1493    1
  7686 13383 13382    1
  7687  1070  1071    1
  7688  1070  1072    1
  7689  2215  2213    1
  7690  7647  7646    1
  7691 10627 10625    1
  7692  3701  3703    1
  7693  3701  3702    1
  7694  2444  2445    1
  7695  4348  4346    1
  7696  3457  3455    1
  7697 13265 13267    1
  7698 11362 11360    1
  7699  6022  6020    1
  7700   870   869    1
  7701   788   789    1
  7702 11585 11587    1
  7703  9403  9401    1
  7704  3131  3132    1
  7705 10034 10035    1
  7706  1271  1273    1
  7707  3773  3775    1
  7708  6021  6020    1
  7709  8000  8002    1
  7710  8000  8001    1
  7711  7603  7601    1
  7712  1930  1928    1
  7713  4684  4682    1
  7714  7886  7888    1
  7715 13050 13049    1
  7716  4116  4115    1
  7717  4184  4185    1
  7718 11354 11355    1
  7719 11354 11356    1
  7720  2213  2214    1
  7721  1903  1901    1
  7722  4074  4073    1
  7723 13795 13793    1
  7724  5513  5514    1
  7725  5741  5743    1
  7726  6208  6206    1
  7727  7601  7602    1
  7728 13697 13699    1
  7729  4346  4347    1
  7730   414   413    1
  7731  3022  3020    1
  7732  4517  4519    1
  7733  5677  5675    1
  7734   862   860    1
  7735  7315  7313    1
  7736  1827  1826    1
  7737  3455  3456    1
  7738  3671  3673    1
  7739  3671  3672    1
  7740 10538 10540    1
  7741 10368 10367    1
  7742  8255  8256    1
  7743  8255  8257    1
  7744  2397  2396    1
  7745 13666 13664    1
  7746  7645  7643    1
  7747 13307 13308    1
  7748   955   953    1
  7749  6096  6095    1
  7750  4073  4075    1
  7751 13794 13793    1
  7752 11084 11085    1
  7753 11067 11066    1
  7754 11819 11821    1
  7755 12589 12587    1
  7756  5370  5369    1
  7757   400   398    1
  7758  7314  7313    1
  7759  4167  4166    1
  7760 11765 11766    1
  7761 10920 10919    1
  7762  3324  3323    1
  7763  8846  8848    1
  7764  8846  8847    1
  7765 11315 11317    1
  7766 11315 11316    1
  7767 11903 11905    1
  7768   267   266    1
  7769  8232  8231    1
  7770  5833  5831    1
  7771  1396  1394    1
  7772  8576  8578    1
  7773  9326  9328    1
  7774 13410 13409    1
  7775  3124  3122    1
  7776 13382 13384    1
  7777  6776  6777    1
  7778  5131  5129    1
  7779 13051 13049    1
  7780   872   874    1
  7781  9597  9596    1
  7782  1495  1493    1
  7783  5275  5273    1
  7784 12588 12587    1
  7785  9421  9419    1
  7786  8231  8233    1
  7787  5369  5371    1
  7788  3503  3505    1
  7789  3503  3504    1
  7790  6326  6328    1
  7791  6326  6327    1
  7792 12519 12518    1
  7793  4049  4051    1
  7794  4049  4050    1
  7795  1901  1902    1
  7796  6730  6728    1
  7797  3123  3122    1
  7798  4219  4217    1
  7799  9596  9598    1
  7800 13007 13008    1
  7801 13007 13009    1
  7802   413   415    1
  7803 10731 10730    1
  7804 11157 11156    1
  7805  9839  9841    1
  7806  9839  9840    1
  7807  5587  5585    1
  7808 12215 12216    1
  7809 12215 12217    1
  7810  1434  1433    1
  7811 11611 11609    1
  7812  3020  3021    1
  7813 10325 10327    1
  7814  8602  8600    1
  7815  5585  5586    1
  7816  7396  7394    1
  7817  6351  6350    1
  7818   864   863    1
  7819 11609 11610    1
  7820 11983 11981    1
  7821  3874  3872    1
  7822 10625 10626    1
  7823  5321  5322    1
  7824  5321  5323    1
  7825  5831  5832    1
  7826  9229  9227    1
  7827  3707  3709    1
  7828  3707  3708    1
  7829  1433  1435    1
  7830  5801  5803    1
  7831  5801  5802    1
  7832 11031 11030    1
  7833  3849  3848    1
  7834  4115  4117    1
  7835  7646  7648    1
  7836  7395  7394    1
  7837  7892  7893    1
  7838  7892  7894    1
  7839  2721  2720    1
  7840   860   861    1
  7841 13941 13940    1
  7842  6567  6566    1
  7843  1880  1881    1
  7844  1880  1882    1
  7845  4704  4703    1
  7846  6206  6207    1
  7847  9406  9404    1
  7848 12367 12365    1
  7849  6139  6137    1
  7850 13329 13328    1
  7851  3859  3857    1
  7852 12178 12176    1
  7853  3848  3850    1
  7854  6316  6314    1
  7855  4682  4683    1
  7856  4915  4913    1
  7857  9064  9062    1
  7858 10367 10369    1
  7859  2544  2543    1
  7860  5192  5194    1
  7861  5192  5193    1
  7862 11030 11032    1
  7863  9419  9420    1
  7864  1395  1394    1
  7865   953   954    1
  7866  5675  5676    1
  7867 11284 11282    1
  7868   266   268    1
  7869  3872  3873    1
  7870  7955  7956    1
  7871  7955  7957    1
  7872  6350  6352    1
  7873 10732 10730    1
  7874  2543  2545    1
  7875  9950  9951    1
  7876  9950  9952    1
  7877  5692  5690    1
  7878 10381 10379    1
  7879  7849  7847    1
  7880  9574  9572    1
  7881   339   338    1
  7882  1826  1828    1
  7883 13664 13665    1
  7884  6990  6989    1
  7885  8468  8469    1
  7886  8468  8470    1
  7887  2256  2255    1
  7888  8832  8831    1
  7889  3323  3325    1
  7890  2396  2398    1
  7891   729   728    1
  7892  9063  9062    1
  7893  6566  6568    1
  7894 12518 12520    1
  7895  4913  4914    1
  7896  3070  3068    1
  7897  6095  6097    1
  7898 12903 12902    1
  7899  7116  7115    1
  7900  4166  4168    1
  7901   398   399    1
  7902 13409 13411    1
  7903  9777  9776    1
  7904  8831  8833    1
  7905 13330 13328    1
  7906  4669  4667    1
  7907  3857  3858    1
  7908  9211  9209    1
  7909  6137  6138    1
  7910 11066 11068    1
  7911 13834 13832    1
  7912  4318  4316    1
  7913  4217  4218    1
  7914  9573  9572    1
  7915  9750  9749    1
  7916  7300  7298    1
  7917  2722  2720    1
  7918  6958  6956    1
  7919 10088 10089    1
  7920 10088 10090    1
  7921  6728  6729    1
  7922 12093 12092    1
  7923  2012  2014    1
  7924  2012  2013    1
  7925  5273  5274    1
  7926  3312  3311    1
  7927  9209  9210    1
  7928  8601  8600    1
  7929   730   728    1
  7930   863   865    1
  7931  3095  3096    1
  7932  3095  3097    1
  7933 11982 11981    1
  7934  3440  3441    1
  7935  3440  3442    1
  7936 13429 13427    1
  7937 12522 12521    1
  7938  2200  2198    1
  7939  4667  4668    1
  7940  8350  8348    1
  7941 13854 13853    1
  7942 11647 11645    1
  7943 11156 11158    1
  7944  9227  9228    1
  7945 12902 12904    1
  7946   691   689    1
  7947  3068  3069    1
  7948  1288  1286    1
  7949  7017  7016    1
  7950  6897  6896    1
  7951 11282 11283    1
  7952  4827  4826    1
  7953  2198  2199    1
  7954 10440 10439    1
  7955   338   340    1
  7956  5766  5765    1
  7957  7298  7299    1
  7958 13427 13428    1
  7959 10972 10970    1
  7960  9312  9311    1
  7961  5691  5690    1
  7962  9778  9776    1
  7963  2757  2756    1
  7964  8348  8349    1
  7965  6239  6241    1
  7966  6239  6240    1
  7967  6989  6991    1
  7968 13942 13940    1
  7969  2257  2255    1
  7970 12829 12827    1
  7971 12365 12366    1
  7972 11212 11210    1
  7973  2123  2124    1
  7974  2123  2125    1
  7975  6956  6957    1
  7976 12176 12177    1
  7977  9404  9405    1
  7978 10581 10580    1
  7979  4703  4705    1
  7980 10970 10971    1
  7981 13832 13833    1
  7982 12092 12094    1
  7983  4159  4157    1
  7984 10439 10441    1
  7985  4256  4258    1
  7986  4256  4257    1
  7987  9182  9183    1
  7988  9182  9184    1
  7989 13839 13838    1
  7990 12082 12080    1
  7991 10580 10582    1
  7992  5765  5767    1
  7993  9232  9230    1
  7994  8221  8219    1
  7995  7515  7514    1
  7996  8622  8621    1
  7997  7847  7848    1
  7998  4278  4277    1
  7999 11210 11211    1
  8000  5575  5573    1
  8001  9658  9656    1
  8002  9690  9689    1
  8003 13855 13853    1
  8004  4852  4850    1
  8005 12523 12521    1
  8006  6314  6315    1
  8007 10380 10379    1
  8008  6896  6898    1
  8009 12080 12081    1
  8010  9231  9230    1
  8011  3311  3313    1
  8012  8992  8990    1
  8013  4197  4196    1
  8014  9422  9423    1
  8015  9422  9424    1
  8016  5293  5291    1
  8017  3681  3680    1
  8018  8220  8219    1
  8019  9128  9129    1
  8020  9128  9130    1
  8021  1878  1877    1
  8022 10017 10016    1
  8023  6760  6758    1
  8024  4851  4850    1
  8025  2756  2758    1
  8026  7427  7428    1
  8027  7427  7429    1
  8028  5968  5966    1
  8029 10578 10577    1
  8030  1286  1287    1
  8031  4277  4279    1
  8032 13912 13910    1
  8033 13838 13840    1
  8034  9749  9751    1
  8035  4828  4826    1
  8036  7115  7117    1
  8037  1245  1244    1
  8038 12298 12296    1
  8039  5292  5291    1
  8040 10713 10712    1
  8041  2909  2911    1
  8042  2909  2910    1
  8043  1244  1246    1
  8044  1062  1061    1
  8045  4316  4317    1
  8046 10820 10821    1
  8047 10820 10822    1
  8048  7929  7928    1
  8049 13729 13727    1
  8050   689   690    1
  8051 13910 13911    1
  8052 11461 11459    1
  8053  4986  4985    1
  8054  7016  7018    1
  8055  9865  9863    1
  8056  6024  6023    1
  8057  9656  9657    1
  8058 11645 11646    1
  8059  9689  9691    1
  8060  8621  8623    1
  8061  4158  4157    1
  8062  9531  9530    1
  8063 10577 10579    1
  8064  4985  4987    1
  8065  9863  9864    1
  8066  7514  7516    1
  8067  7014  7013    1
  8068  7011  7010    1
  8069  2458  2456    1
  8070  5966  5967    1
  8071  6758  6759    1
  8072  5298  5297    1
  8073 12828 12827    1
  8074  6987  6986    1
  8075  4196  4198    1
  8076  6988  6986    1
  8077  9487  9485    1
  8078 11542 11540    1
  8079  5705  5706    1
  8080  5705  5707    1
  8081 12745 12743    1
  8082  2644  2642    1
  8083  3650  3652    1
  8084  3650  3651    1
  8085  3680  3682    1
  8086  6861  6860    1
  8087  6580  6578    1
  8088  9311  9313    1
  8089  9485  9486    1
  8090 10167 10166    1
  8091  4192  4190    1
  8092 11436 11435    1
  8093  1151  1153    1
  8094  1151  1152    1
  8095 10016 10018    1
  8096  6118  6116    1
  8097  3273  3272    1
  8098  8990  8991    1
  8099  3272  3274    1
  8100 13753 13751    1
  8101 13727 13728    1
  8102  5565  5564    1
  8103  4191  4190    1
  8104 11860 11858    1
  8105   228   227    1
  8106  7013  7015    1
  8107  5573  5574    1
  8108 12442 12440    1
  8109 10087 10085    1
  8110 10712 10714    1
  8111 10346 10347    1
  8112 10346 10348    1
  8113 11843 11845    1
  8114 11843 11844    1
  8115  1209  1208    1
  8116  2457  2456    1
  8117  1140  1139    1
  8118 11106 11105    1
  8119 13842 13841    1
  8120  4563  4562    1
  8121  1877  1879    1
  8122  3534  3533    1
  8123 12611 12613    1
  8124 12611 12612    1
  8125 12296 12297    1
  8126  9532  9530    1
  8127 11245 11243    1
  8128  4822  4820    1
  8129  6186  6185    1
  8130  7010  7012    1
  8131 11107 11105    1
  8132  1208  1210    1
  8133 11859 11858    1
  8134 10417 10415    1
  8135  9094  9092    1
  8136  1061  1063    1
  8137 12743 12744    1
  8138   227   229    1
  8139  6023  6025    1
  8140 12441 12440    1
  8141  5550  5549    1
  8142  2643  2642    1
  8143 11459 11460    1
  8144  3015  3014    1
  8145 13777 13775    1
  8146  8371  8369    1
  8147  9093  9092    1
  8148 10415 10416    1
  8149  6435  6434    1
  8150  6425  6426    1
  8151  6425  6427    1
  8152  6578  6579    1
  8153  6116  6117    1
  8154 11691 11690    1
  8155 12411 12410    1
  8156  2281  2279    1
  8157  7928  7930    1
  8158 13083 13082    1
  8159  4169  4170    1
  8160  4169  4171    1
  8161 10168 10166    1
  8162  9159  9158    1
  8163  5299  5297    1
  8164 11690 11692    1
  8165  1788  1787    1
  8166 13841 13843    1
  8167  6434  6436    1
  8168  6550  6548    1
  8169 11205 11204    1
  8170  2280  2279    1
  8171  6549  6548    1
  8172  7653  7652    1
  8173 11204 11206    1
  8174 12410 12412    1
  8175 11540 11541    1
  8176  4821  4820    1
  8177  3452  3454    1
  8178  3452  3453    1
  8179   341   342    1
  8180   341   343    1
  8181  3059  3060    1
  8182  3059  3061    1
  8183  6860  6862    1
  8184 11435 11437    1
  8185  9714  9713    1
  8186  1141  1139    1
  8187  2895  2894    1
  8188 12454 12452    1
  8189  1876  1874    1
  8190 12824 12825    1
  8191 12824 12826    1
  8192  8369  8370    1
  8193 11243 11244    1
  8194  3581  3583    1
  8195  3581  3582    1
  8196  2650  2648    1
  8197  8597  8598    1
  8198  8597  8599    1
  8199  4465  4463    1
  8200  3414  3413    1
  8201 10085 10086    1
  8202 11853 11852    1
  8203  6187  6185    1
  8204  5564  5566    1
  8205  7266  7265    1
  8206  4182  4181    1
  8207  1543  1541    1
  8208  6952  6950    1
  8209 13751 13752    1
  8210 12452 12453    1
  8211 13234 13232    1
  8212  8419  8417    1
  8213  1874  1875    1
  8214  7540  7538    1
  8215  8924  8926    1
  8216  8924  8925    1
  8217  9016  9014    1
  8218  8417  8418    1
  8219  3626  3627    1
  8220  3626  3628    1
  8221  9457  9455    1
  8222  4562  4564    1
  8223  4463  4464    1
  8224  9388  9386    1
  8225  9099  9098    1
  8226   314   315    1
  8227   314   316    1
  8228  2894  2896    1
  8229  9982  9980    1
  8230  8596  8594    1
  8231  9980  9981    1
  8232  2254  2252    1
  8233  3533  3535    1
  8234 11939 11941    1
  8235 11939 11940    1
  8236  8865  8864    1
  8237  9158  9160    1
  8238  2649  2648    1
  8239 12527 12529    1
  8240 12527 12528    1
  8241  3148  3146    1
  8242 10116 10115    1
  8243  1392  1391    1
  8244  3247  3245    1
  8245  6650  6652    1
  8246  6650  6651    1
  8247  9386  9387    1
  8248  8594  8595    1
  8249  3721  3719    1
  8250  4602  4601    1
  8251  1200  1199    1
  8252  3648  3647    1
  8253  5549  5551    1
  8254 12050 12052    1
  8255 12050 12051    1
  8256  3719  3720    1
  8257  2253  2252    1
  8258  1905  1904    1
  8259 10115 10117    1
  8260  5992  5990    1
  8261  1787  1789    1
  8262  1720  1718    1
  8263  3014  3016    1
  8264  9713  9715    1
  8265  1992  1991    1
  8266  4983  4982    1
  8267  3246  3245    1
  8268 13459 13457    1
  8269  8518  8516    1
  8270  9315  9314    1
  8271 10616 10617    1
  8272 10616 10618    1
  8273  9314  9316    1
  8274  9014  9015    1
  8275 12972 12971    1
  8276  7538  7539    1
  8277  7243  7241    1
  8278  7652  7654    1
  8279  6951  6950    1
  8280  9098  9100    1
  8281  1540  1538    1
  8282  8176  8174    1
  8283  8864  8866    1
  8284 13082 13084    1
  8285  5808  5807    1
  8286   274   272    1
  8287  3598  3596    1
  8288  5990  5991    1
  8289  7265  7267    1
  8290 13775 13776    1
  8291  8516  8517    1
  8292  1539  1538    1
  8293 11628 11627    1
  8294 11367 11366    1
  8295  4435  4433    1
  8296  1991  1993    1
  8297  1391  1393    1
  8298 13232 13233    1
  8299  3147  3146    1
  8300  3209  3211    1
  8301  3209  3210    1
  8302  8105  8106    1
  8303  8105  8107    1
  8304  6306  6305    1
  8305  5599  5597    1
  8306 11854 11852    1
  8307   583   581    1
  8308  5440  5438    1
  8309  1719  1718    1
  8310  1904  1906    1
  8311  1731  1730    1
  8312  7591  7589    1
  8313  3886  3884    1
  8314   272   273    1
  8315 12971 12973    1
  8316  4162  4160    1
  8317  3413  3415    1
  8318  9203  9204    1
  8319  9203  9205    1
  8320  7252  7250    1
  8321  4181  4183    1
  8322   520   518    1
  8323  4434  4433    1
  8324 13415 13416    1
  8325 13415 13417    1
  8326  4601  4603    1
  8327  9455  9456    1
  8328  7834  7832    1
  8329  3664  3662    1
  8330  8859  8858    1
  8331  9783  9782    1
  8332   581   582    1
  8333  9463  9461    1
  8334  6305  6307    1
  8335  5747  5748    1
  8336  5747  5749    1
  8337  1541  1542    1
  8338  6670  6668    1
  8339  7112  7113    1
  8340  7112  7114    1
  8341  1199  1201    1
  8342  4160  4161    1
  8343  1163  1164    1
  8344  1163  1165    1
  8345   439   437    1
  8346  3647  3649    1
  8347 13457 13458    1
  8348 12300 12299    1
  8349 12714 12713    1
  8350  7832  7833    1
  8351  4982  4984    1
  8352 12713 12715    1
  8353  6361  6359    1
  8354   502   500    1
  8355 12301 12299    1
  8356  7241  7242    1
  8357  3596  3597    1
  8358 12346 12344    1
  8359 11623 11621    1
  8360   768   767    1
  8361  2180  2182    1
  8362  2180  2181    1
  8363 13483 13481    1
  8364 11368 11366    1
  8365  8175  8174    1
  8366  8783  8785    1
  8367  8783  8784    1
  8368  2883  2882    1
  8369   279   278    1
  8370 13671 13670    1
  8371  7546  7544    1
  8372  8970  8969    1
  8373  8896  8894    1
  8374 13672 13670    1
  8375  3663  3662    1
  8376 13481 13482    1
  8377  6668  6669    1
  8378  2067  2066    1
  8379   280   278    1
  8380 13579 13577    1
  8381  5807  5809    1
  8382  6343  6341    1
  8383 13230 13229    1
  8384  5598  5597    1
  8385   565   563    1
  8386  9462  9461    1
  8387 11823 11822    1
  8388  5392  5390    1
  8389  9782  9784    1
  8390  7544  7545    1
  8391 12477 12476    1
  8392  6360  6359    1
  8393  5612  5613    1
  8394  5612  5614    1
  8395 11629 11627    1
  8396  5390  5391    1
  8397 12476 12478    1
  8398   918   917    1
  8399  7589  7590    1
  8400   518   519    1
  8401  4028  4029    1
  8402  4028  4030    1
  8403  4174  4172    1
  8404 13134 13133    1
  8405  3885  3884    1
  8406  5724  5723    1
  8407  2882  2884    1
  8408  6272  6273    1
  8409  6272  6274    1
  8410 13930 13928    1
  8411  2637  2636    1
  8412  1378  1376    1
  8413  1377  1376    1
  8414  5583  5582    1
  8415  3502  3500    1
  8416  7250  7251    1
  8417 13929 13928    1
  8418  3381  3380    1
  8419  5438  5439    1
  8420   767   769    1
  8421  2328  2327    1
  8422  5529  5528    1
  8423   248   249    1
  8424   248   250    1
  8425 13577 13578    1
  8426  1730  1732    1
  8427  1989  1988    1
  8428  8400  8399    1
  8429  3501  3500    1
  8430  4172  4173    1
  8431  2636  2638    1
  8432   437   438    1
  8433  5008  5006    1
  8434  8858  8860    1
  8435 13133 13135    1
  8436 13172 13174    1
  8437 13172 13173    1
  8438  5410  5408    1
  8439   500   501    1
  8440  8399  8401    1
  8441 13229 13231    1
  8442 10612 10610    1
  8443  8652  8651    1
  8444  3846  3845    1
  8445  3380  3382    1
  8446  3249  3248    1
  8447  9191  9192    1
  8448  9191  9193    1
  8449  8894  8895    1
  8450  6341  6342    1
  8451 11621 11622    1
  8452  9754  9752    1
  8453 11676 11675    1
  8454  8969  8971    1
  8455  5007  5006    1
  8456   917   919    1
  8457  2066  2068    1
  8458 12344 12345    1
  8459  5723  5725    1
  8460  2879  2881    1
  8461  2879  2880    1
  8462 11675 11677    1
  8463   563   564    1
  8464  6119  6120    1
  8465  6119  6121    1
  8466  5608  5606    1
  8467 10594 10592    1
  8468 11822 11824    1
  8469 10592 10593    1
  8470 10299 10298    1
  8471  5234  5235    1
  8472  5234  5236    1
  8473  5528  5530    1
  8474 11308 11306    1
  8475 10746 10745    1
  8476 13639 13637    1
  8477   963   962    1
  8478  4480  4478    1
  8479 10745 10747    1
  8480  8817  8816    1
  8481  9146  9147    1
  8482  9146  9148    1
  8483  2605  2603    1
  8484  5461  5459    1
  8485  1890  1889    1
  8486  4478  4479    1
  8487 10032 10031    1
  8488  5637  5636    1
  8489  3236  3237    1
  8490  3236  3238    1
  8491  3186  3185    1
  8492   716   718    1
  8493   716   717    1
  8494  5459  5460    1
  8495  4633  4631    1
  8496  6903  6902    1
  8497  2593  2591    1
  8498  7807  7805    1
  8499  8816  8818    1
  8500  2590  2588    1
  8501  7806  7805    1
  8502  5582  5584    1
  8503  5674  5672    1
  8504   966   965    1
  8505  5607  5606    1
  8506  5474  5475    1
  8507  5474  5476    1
  8508  9752  9753    1
  8509  1988  1990    1
  8510  2327  2329    1
  8511  9810  9809    1
  8512  3248  3250    1
  8513  5488  5486    1
  8514   602   603    1
  8515   602   604    1
  8516 12213 12212    1
  8517 10610 10611    1
  8518  4993  4991    1
  8519 10031 10033    1
  8520 11306 11307    1
  8521  1285  1283    1
  8522  8800  8798    1
  8523 10285 10283    1
  8524 11873 11875    1
  8525 11873 11874    1
  8526  6490  6488    1
  8527  3173  3174    1
  8528  3173  3175    1
  8529  5408  5409    1
  8530  3845  3847    1
  8531  4499  4501    1
  8532  4499  4500    1
  8533  2170  2168    1
  8534  5673  5672    1
  8535  4716  4715    1
  8536  3317  3319    1
  8537  3317  3318    1
  8538   965   967    1
  8539  8651  8653    1
  8540 12950 12952    1
  8541 12950 12951    1
  8542  1981  1979    1
  8543  9811  9809    1
  8544  2591  2592    1
  8545  2676  2675    1
  8546  8798  8799    1
  8547  2168  2169    1
  8548 10630 10628    1
  8549  1891  1889    1
  8550 13219 13217    1
  8551  8393  8394    1
  8552  8393  8395    1
  8553   325   323    1
  8554  7496  7497    1
  8555  7496  7498    1
  8556 13881 13880    1
  8557 10298 10300    1
  8558  5097  5096    1
  8559  9054  9053    1
  8560 13123 13121    1
  8561  5436  5435    1
  8562 10624 10622    1
  8563  9053  9055    1
  8564  3187  3185    1
  8565  5636  5638    1
  8566  4632  4631    1
  8567  9647  9648    1
  8568  9647  9649    1
  8569  2074  2072    1
  8570  2603  2604    1
  8571 13637 13638    1
  8572  8644  8642    1
  8573  6902  6904    1
  8574  1361  1362    1
  8575  1361  1363    1
  8576 12212 12214    1
  8577  5437  5435    1
  8578   208   206    1
  8579  7711  7709    1
  8580   962   964    1
  8581  2118  2117    1
  8582  2942  2943    1
  8583  2942  2944    1
  8584 12701 12703    1
  8585 12701 12702    1
  8586 10336 10334    1
  8587  2289  2288    1
  8588  7512  7511    1
  8589  5486  5487    1
  8590  2661  2660    1
  8591   324   323    1
  8592  2675  2677    1
  8593 10628 10629    1
  8594  2728  2726    1
  8595 11473 11471    1
  8596  5355  5354    1
  8597  7786  7784    1
  8598  7511  7513    1
  8599  1486  1484    1
  8600  1193  1194    1
  8601  1193  1195    1
  8602  2355  2354    1
  8603  9781  9779    1
  8604   206   207    1
  8605 12058 12056    1
  8606  2414  2416    1
  8607  2414  2415    1
  8608  2588  2589    1
  8609  2290  2288    1
  8610  4991  4992    1
  8611   739   737    1
  8612 12651 12650    1
  8613 10609 10607    1
  8614  1137  1136    1
  8615  5354  5356    1
  8616  3138  3137    1
  8617  7002  7001    1
  8618 10335 10334    1
  8619 13685 13686    1
  8620 13685 13687    1
  8621 13688 13690    1
  8622 13688 13689    1
  8623 13218 13217    1
  8624  4715  4717    1
  8625  7201  7199    1
  8626  8642  8643    1
  8627 10283 10284    1
  8628  5755  5753    1
  8629  6489  6488    1
  8630  1283  1284    1
  8631  1926  1925    1
  8632  1136  1138    1
  8633 11704 11702    1
  8634  7709  7710    1
  8635  1979  1980    1
  8636  7003  7001    1
  8637  2072  2073    1
  8638  3137  3139    1
  8639  5096  5098    1
  8640  3217  3215    1
  8641  1274  1275    1
  8642  1274  1276    1
  8643  2119  2117    1
  8644   737   738    1
  8645 11738 11740    1
  8646 11738 11739    1
  8647 13414 13412    1
  8648 12650 12652    1
  8649  4108  4106    1
  8650 10622 10623    1
  8651  2356  2354    1
  8652 13882 13880    1
  8653 12234 12233    1
  8654  5787  5786    1
  8655  2974  2972    1
  8656 11471 11472    1
  8657  7058  7060    1
  8658  7058  7059    1
  8659  2660  2662    1
  8660  2087  2088    1
  8661  2087  2089    1
  8662 13412 13413    1
  8663  7784  7785    1
  8664  4106  4107    1
  8665  7292  7293    1
  8666  7292  7294    1
  8667  2739  2738    1
  8668 13121 13122    1
  8669 12056 12057    1
  8670 13270 13268    1
  8671 12507 12506    1
  8672 13601 13602    1
  8673 13601 13603    1
  8674  6910  6908    1
  8675  1484  1485    1
  8676 11294 11296    1
  8677 11294 11295    1
  8678  5218  5216    1
  8679  5786  5788    1
  8680 11703 11702    1
  8681  6909  6908    1
  8682  5216  5217    1
  8683  9779  9780    1
  8684  7199  7200    1
  8685  2406  2405    1
  8686  2726  2727    1
  8687  7275  7274    1
  8688  1849  1847    1
  8689  2265  2264    1
  8690  2096  2098    1
  8691  2096  2097    1
  8692  5241  5240    1
  8693 13268 13269    1
  8694  8641  8639    1
  8695  2709  2708    1
  8696  4105  4103    1
  8697  7274  7276    1
  8698  9110  9112    1
  8699  9110  9111    1
  8700  2800  2798    1
  8701  5576  5578    1
  8702  5576  5577    1
  8703  2531  2532    1
  8704  2531  2533    1
  8705  3215  3216    1
  8706   474   473    1
  8707  5754  5753    1
  8708 10607 10608    1
  8709  1847  1848    1
  8710  5070  5069    1
  8711 13336 13334    1
  8712  4428  4427    1
  8713  4427  4429    1
  8714  1925  1927    1
  8715  2738  2740    1
  8716  5827  5825    1
  8717  4901  4903    1
  8718  4901  4902    1
  8719 13334 13335    1
  8720  8271  8270    1
  8721  2266  2264    1
  8722  5240  5242    1
  8723 12233 12235    1
  8724  4033  4031    1
  8725 11911 11909    1
  8726  2972  2973    1
  8727  9999  9998    1
  8728  5485  5483    1
  8729 11507 11508    1
  8730 11507 11509    1
  8731  4357  4355    1
  8732   473   475    1
  8733  3077  3078    1
  8734  3077  3079    1
  8735   426   425    1
  8736 12506 12508    1
  8737  5078  5080    1
  8738  5078  5079    1
  8739  8272  8270    1
  8740 12197 12199    1
  8741 12197 12198    1
  8742 12375 12374    1
  8743 11909 11910    1
  8744  2554  2552    1
  8745 12994 12992    1
  8746  2798  2799    1
  8747 11121 11120    1
  8748  2552  2553    1
  8749  9697  9695    1
  8750   225   224    1
  8751 12374 12376    1
  8752 11122 11120    1
  8753  4306  4304    1
  8754  1089  1088    1
  8755  7093  7091    1
  8756  4356  4355    1
  8757  1159  1157    1
  8758  2710  2708    1
  8759  5483  5484    1
  8760 11773 11771    1
  8761 11257 11255    1
  8762  2626  2624    1
  8763  4303  4301    1
  8764  5069  5071    1
  8765  8640  8639    1
  8766  8286  8285    1
  8767 11255 11256    1
  8768  1227  1226    1
  8769  2405  2407    1
  8770  3091  3089    1
  8771  4104  4103    1
  8772 11373 11372    1
  8773 12171 12170    1
  8774  8285  8287    1
  8775  9052  9050    1
  8776 12546 12545    1
  8777   224   226    1
  8778  1088  1090    1
  8779  5278  5276    1
  8780 12288 12287    1
  8781  1158  1157    1
  8782  5571  5570    1
  8783 12170 12172    1
  8784  6178  6176    1
  8785 13803 13802    1
  8786  7091  7092    1
  8787  4031  4032    1
  8788 13197 13196    1
  8789  9489  9488    1
  8790  9046  9044    1
  8791 12682 12680    1
  8792 12728 12730    1
  8793 12728 12729    1
  8794  6482  6483    1
  8795  6482  6484    1
  8796   425   427    1
  8797 11241 11240    1
  8798  9045  9044    1
  8799 11372 11374    1
  8800  9695  9696    1
  8801  4124  4126    1
  8802  4124  4125    1
  8803  5825  5826    1
  8804 12289 12287    1
  8805  9998 10000    1
  8806 10738 10736    1
  8807  4304  4305    1
  8808 13196 13198    1
  8809  4111  4109    1
  8810 13707 13706    1
  8811  6277  6275    1
  8812  2608  2606    1
  8813  4110  4109    1
  8814 12992 12993    1
  8815  4447  4445    1
  8816  1226  1228    1
  8817  9378  9377    1
  8818  3360  3359    1
  8819 12681 12680    1
  8820  4301  4302    1
  8821  4445  4446    1
  8822  3530  3531    1
  8823  3530  3532    1
  8824  6781  6779    1
  8825 10654 10652    1
  8826  4587  4586    1
  8827  2091  2090    1
  8828  2624  2625    1
  8829  3089  3090    1
  8830  2606  2607    1
  8831 11771 11772    1
  8832  5570  5572    1
  8833  5230  5228    1
  8834  9125  9126    1
  8835  9125  9127    1
  8836  9488  9490    1
  8837 12545 12547    1
  8838  2312  2314    1
  8839  2312  2313    1
  8840 11059 11057    1
  8841  6176  6177    1
  8842 11638 11636    1
  8843 13804 13802    1
  8844  3354  3353    1
  8845  6275  6276    1
  8846  3540  3539    1
  8847  9050  9051    1
  8848  5276  5277    1
  8849  2090  2092    1
  8850  9727  9725    1
  8851  1384  1382    1
  8852  1121  1123    1
  8853  1121  1122    1
  8854 11754 11753    1
  8855  7612  7610    1
  8856  6779  6780    1
  8857  5974  5972    1
  8858  8658  8657    1
  8859 11240 11242    1
  8860  8280  8279    1
  8861  4588  4586    1
  8862  5972  5973    1
  8863  1424  1425    1
  8864  1424  1426    1
  8865  6013  6011    1
  8866  9889  9887    1
  8867  8699  8700    1
  8868  8699  8701    1
  8869  8279  8281    1
  8870  5228  5229    1
  8871  9888  9887    1
  8872  6012  6011    1
  8873  4241  4242    1
  8874  4241  4243    1
  8875 11753 11755    1
  8876  9200  9202    1
  8877  9200  9201    1
  8878  1578  1577    1
  8879  9377  9379    1
  8880 11637 11636    1
  8881 10736 10737    1
  8882  3539  3541    1
  8883  3170  3172    1
  8884  3170  3171    1
  8885  5851  5849    1
  8886 13706 13708    1
  8887  7635  7634    1
  8888  2670  2669    1
  8889  5850  5849    1
  8890 11057 11058    1
  8891  2178  2177    1
  8892  5314  5312    1
  8893   311   312    1
  8894   311   313    1
  8895  4060  4058    1
  8896  3353  3355    1
  8897  9031  9029    1
  8898  8657  8659    1
  8899  1382  1383    1
  8900  9030  9029    1
  8901  4280  4282    1
  8902  4280  4281    1
  8903  3359  3361    1
  8904  7729  7727    1
  8905  4810  4808    1
  8906  3510  3509    1
  8907 11594 11595    1
  8908 11594 11596    1
  8909 10652 10653    1
  8910  5425  5423    1
  8911 11229 11228    1
  8912  4516  4514    1
  8913  9281  9283    1
  8914  9281  9282    1
  8915  2334  2333    1
  8916  5313  5312    1
  8917  7610  7611    1
  8918 10651 10649    1
  8919 10699 10697    1
  8920  1078  1076    1
  8921  2333  2335    1
  8922  3996  3995    1
  8923  7727  7728    1
  8924  6921  6920    1
  8925  1577  1579    1
  8926 11230 11228    1
  8927  2177  2179    1
  8928  9725  9726    1
  8929  3057  3056    1
  8930 10698 10697    1
  8931  1076  1077    1
  8932 11380 11378    1
  8933  7864  7862    1
  8934  9020  9022    1
  8935  9020  9021    1
  8936  2276  2278    1
  8937  2276  2277    1
  8938  4548  4547    1
  8939  7327  7325    1
  8940  3509  3511    1
  8941  7678  7676    1
  8942  4514  4515    1
  8943 11378 11379    1
  8944  7634  7636    1
  8945  9121  9119    1
  8946  4058  4059    1
  8947  8828  8830    1
  8948  8828  8829    1
  8949  2669  2671    1
  8950  3995  3997    1
  8951  1092  1091    1
  8952  6920  6922    1
  8953  1091  1093    1
  8954  3007  3005    1
  8955  7862  7863    1
  8956  7325  7326    1
  8957  9120  9119    1
  8958  4808  4809    1
  8959  3081  3080    1
  8960  9333  9332    1
  8961  8511  8510    1
  8962  5423  5424    1
  8963 10649 10650    1
  8964  4395  4394    1
  8965 11103 11102    1
  8966  3202  3200    1
  8967  7677  7676    1
  8968  1290  1289    1
  8969  1356  1355    1
  8970  9922  9920    1
  8971  7410  7409    1
  8972  8029  8027    1
  8973  6607  6605    1
  8974  8677  8675    1
  8975  7675  7673    1
  8976  9346  9344    1
  8977  1291  1289    1
  8978 13779 13778    1
  8979  3058  3056    1
  8980  4549  4547    1
  8981  7527  7526    1
  8982 13780 13778    1
  8983 13400 13402    1
  8984 13400 13401    1
  8985   958   956    1
  8986  6605  6606    1
  8987 12961 12959    1
  8988  9345  9344    1
  8989  3200  3201    1
  8990  3005  3006    1
  8991 11994 11993    1
  8992  4651  4649    1
  8993  1135  1133    1
  8994   898   896    1
  8995  7673  7674    1
  8996  3082  3080    1
  8997 11102 11104    1
  8998  4177  4175    1
  8999  7409  7411    1
  9000   756   755    1
  9001  2610  2609    1
  9002 10555 10553    1
  9003  1436  1438    1
  9004  1436  1437    1
  9005  8027  8028    1
  9006  4649  4650    1
  9007 10374 10373    1
  9008  8032  8030    1
  9009  1355  1357    1
  9010 11995 11993    1
  9011  1855  1853    1
  9012  7526  7528    1
  9013  9480  9479    1
  9014  4394  4396    1
  9015   442   440    1
  9016  4204  4202    1
  9017  9332  9334    1
  9018  3736  3734    1
  9019  5336  5337    1
  9020  5336  5338    1
  9021 10553 10554    1
  9022  4886  4888    1
  9023  4886  4887    1
  9024  8510  8512    1
  9025 10375 10373    1
  9026 13249 13247    1
  9027 10711 10709    1
  9028  9920  9921    1
  9029 12780 12779    1
  9030   897   896    1
  9031  8675  8676    1
  9032  7566  7565    1
  9033  8030  8031    1
  9034  1325  1327    1
  9035  1325  1326    1
  9036   391   389    1
  9037 13352 13353    1
  9038 13352 13354    1
  9039  8769  8768    1
  9040  2694  2693    1
  9041 11350 11348    1
  9042 11511 11510    1
  9043 10338 10337    1
  9044   755   757    1
  9045  9479  9481    1
  9046 11190 11189    1
  9047  7565  7567    1
  9048 12735 12734    1
  9049  1447  1445    1
  9050 10771 10769    1
  9051  9319  9317    1
  9052 10337 10339    1
  9053   956   957    1
  9054 12779 12781    1
  9055  1133  1134    1
  9056 11191 11189    1
  9057   675   674    1
  9058 12959 12960    1
  9059 10575 10574    1
  9060 12734 12736    1
  9061  1445  1446    1
  9062 10769 10770    1
  9063   440   441    1
  9064  1900  1898    1
  9065  9318  9317    1
  9066  3735  3734    1
  9067   615   614    1
  9068 10709 10710    1
  9069  4457  4458    1
  9070  4457  4459    1
  9071  5220  5219    1
  9072 13247 13248    1
  9073 13425 13424    1
  9074   389   390    1
  9075   711   710    1
  9076  1854  1853    1
  9077  4175  4176    1
  9078  2819  2820    1
  9079  2819  2821    1
  9080 11512 11510    1
  9081  4202  4203    1
  9082  6537  6536    1
  9083 12592 12590    1
  9084  2609  2611    1
  9085  9224  9226    1
  9086  9224  9225    1
  9087  8768  8770    1
  9088  2695  2693    1
  9089   676   674    1
  9090  8455  8453    1
  9091 12594 12593    1
  9092  6536  6538    1
  9093   616   614    1
  9094 11348 11349    1
  9095   669   668    1
  9096   678   677    1
  9097  2837  2839    1
  9098  2837  2838    1
  9099 10574 10576    1
  9100  3688  3686    1
  9101  7737  7736    1
  9102   668   670    1
  9103  5489  5490    1
  9104  5489  5491    1
  9105  2724  2723    1
  9106  2034  2033    1
  9107 13424 13426    1
  9108  8453  8454    1
  9109  3296  3298    1
  9110  3296  3297    1
  9111  9632  9633    1
  9112  9632  9634    1
  9113  5219  5221    1
  9114 12486 12485    1
  9115   677   679    1
  9116 11868 11867    1
  9117  1898  1899    1
  9118 12593 12595    1
  9119  9418  9416    1
  9120   710   712    1
  9121  9544  9542    1
  9122 11802 11801    1
  9123 12590 12591    1
  9124  8413  8411    1
  9125  3686  3687    1
  9126  6445  6443    1
  9127  2494  2492    1
  9128  8164  8162    1
  9129  1674  1673    1
  9130  8074  8072    1
  9131  2492  2493    1
  9132  1673  1675    1
  9133  7311  7310    1
  9134 11869 11867    1
  9135  7312  7310    1
  9136  7736  7738    1
  9137 11801 11803    1
  9138  1125  1124    1
  9139  5358  5357    1
  9140 12815 12817    1
  9141 12815 12816    1
  9142  6441  6440    1
  9143  2033  2035    1
  9144 10026 10025    1
  9145  8411  8412    1
  9146  9256  9254    1
  9147  2723  2725    1
  9148 12485 12487    1
  9149  7174  7172    1
  9150 10282 10280    1
  9151 11231 11233    1
  9152 11231 11232    1
  9153 10025 10027    1
  9154  1126  1124    1
  9155  9542  9543    1
  9156  8018  8020    1
  9157  8018  8019    1
  9158 12822 12821    1
  9159  9254  9255    1
  9160  6444  6443    1
  9161  3834  3833    1
  9162  9416  9417    1
  9163 10853 10855    1
  9164 10853 10854    1
  9165  2218  2216    1
  9166 13732 13730    1
  9167 13222 13220    1
  9168  5544  5543    1
  9169  7214  7215    1
  9170  7214  7216    1
  9171  8072  8073    1
  9172  2216  2217    1
  9173 12402 12401    1
  9174  8162  8163    1
  9175 13730 13731    1
  9176 10281 10280    1
  9177  6442  6440    1
  9178  5357  5359    1
  9179  1525  1523    1
  9180 12403 12401    1
  9181  4165  4163    1
  9182  1523  1524    1
  9183 12270 12269    1
  9184  9335  9336    1
  9185  9335  9337    1
  9186  1146  1145    1
  9187  7048  7046    1
  9188 13462 13460    1
  9189  4163  4164    1
  9190  2319  2318    1
  9191  7414  7412    1
  9192 11475 11474    1
  9193  7172  7173    1
  9194  9910  9908    1
  9195 10401 10400    1
  9196 12269 12271    1
  9197 13145 13147    1
  9198 13145 13146    1
  9199 10400 10402    1
  9200  7885  7883    1
  9201  7573  7571    1
  9202  9908  9909    1
  9203  7270  7268    1
  9204 10472 10474    1
  9205 10472 10473    1
  9206 11476 11474    1
  9207  3833  3835    1
  9208 13460 13461    1
  9209  1025  1026    1
  9210  1025  1027    1
  9211  7412  7413    1
  9212 13725 13724    1
  9213 12821 12823    1
  9214  5543  5545    1
  9215  4997  4998    1
  9216  4997  4999    1
  9217 11794 11792    1
  9218  6764  6766    1
  9219  6764  6765    1
  9220  2204  2206    1
  9221  2204  2205    1
  9222  5128  5126    1
  9223 13220 13221    1
  9224 11792 11793    1
  9225  7884  7883    1
  9226  1145  1147    1
  9227  6694  6692    1
  9228  7571  7572    1
  9229  5127  5126    1
  9230  4804  4802    1
  9231  7046  7047    1
  9232 11070 11069    1
  9233 12222 12221    1
  9234  2318  2320    1
  9235  4802  4803    1
  9236  1813  1811    1
  9237 12672 12671    1
  9238 13724 13726    1
  9239 13617 13616    1
  9240  7133  7134    1
  9241  7133  7135    1
  9242  7418  7419    1
  9243  7418  7420    1
  9244  7268  7269    1
  9245  1782  1781    1
  9246 11071 11069    1
  9247  3084  3083    1
  9248  1600  1598    1
  9249  4819  4817    1
  9250  1811  1812    1
  9251  5443  5441    1
  9252  8722  8720    1
  9253 12673 12671    1
  9254  6692  6693    1
  9255 12221 12223    1
  9256  5442  5441    1
  9257  4817  4818    1
  9258  7063  7061    1
  9259 11626 11624    1
  9260 13618 13616    1
  9261  6586  6584    1
  9262  1351  1349    1
  9263  7151  7153    1
  9264  7151  7152    1
  9265  5857  5855    1
  9266  3083  3085    1
  9267  6556  6554    1
  9268  9789  9788    1
  9269  1781  1783    1
  9270  9788  9790    1
  9271  6584  6585    1
  9272  8720  8721    1
  9273 13508 13509    1
  9274 13508 13510    1
  9275  2104  2102    1
  9276  5157  5156    1
  9277  5855  5856    1
  9278  1916  1918    1
  9279  1916  1917    1
  9280  1598  1599    1
  9281  9009  9008    1
  9282  1366  1364    1
  9283  7061  7062    1
  9284 12335 12336    1
  9285 12335 12337    1
  9286 13894 13892    1
  9287  1350  1349    1
  9288  9010  9008    1
  9289  6457  6455    1
  9290 11624 11625    1
  9291  2616  2615    1
  9292  5156  5158    1
  9293  6554  6555    1
  9294  2742  2741    1
  9295  1563  1562    1
  9296  6534  6533    1
  9297  4962  4961    1
  9298 13892 13893    1
  9299  9330  9329    1
  9300  2743  2741    1
  9301  2102  2103    1
  9302  1364  1365    1
  9303  5912  5913    1
  9304  5912  5914    1
  9305  5592  5591    1
  9306 12578 12579    1
  9307 12578 12580    1
  9308  6983  6984    1
  9309  6983  6985    1
  9310  4963  4961    1
  9311  5591  5593    1
  9312  7068  7067    1
  9313  8967  8966    1
  9314  7067  7069    1
  9315  2166  2165    1
  9316  1564  1562    1
  9317  6456  6455    1
  9318  2615  2617    1
  9319  2167  2165    1
  9320  9329  9331    1
  9321  6533  6535    1
  9322  5805  5804    1
  9323 10110 10109    1
  9324  2338  2336    1
  9325  1656  1655    1
  9326  5505  5504    1
  9327 10109 10111    1
  9328 11536 11534    1
  9329  5504  5506    1
  9330  8966  8968    1
  9331  7321  7319    1
  9332  1655  1657    1
  9333  5804  5806    1
  9334 11535 11534    1
  9335  2336  2337    1
  9336  7320  7319    1
  9337  6153  6152    1
  9338  6152  6154    1
  9339  6382  6380    1
  9340  7819  7817    1
  9341  8122  8120    1
  9342 13319 13320    1
  9343 13319 13321    1
  9344  7818  7817    1
  9345  8120  8121    1
  9346  6380  6381    1
  9347  1832  1833    1
  9348  1832  1834    1
  9349  7372  7370    1
  9350  3406  3404    1
  9351 13277 13279    1
  9352 13277 13278    1
  9353  7371  7370    1
  9354  7405  7403    1
  9355  3404  3405    1
  9356  7403  7404    1
  9357  2529  2528    1
  9358  6963  6962    1
  9359  6962  6964    1
  9360  8736  8735    1
  9361  2528  2530    1
  9362  8737  8735    1
  9363  2095  2093    1
  9364  2093  2094    1
