@<TRIPOS>MOLECULE

 4756 3844 923 0 0

@<TRIPOS>ATOM
      1 N          26.0440   24.4250   24.8160 N.am    1  DAL1       -0.3027
      2 HN         25.6080   24.5030   23.9230 H       1  DAL1        0.1495
      3 CA         27.4590   24.6400   24.7400 C.3     1  DAL1        0.0968
      4 HA         28.0390   24.0560   25.4390 H       1  DAL1        0.0592
      5 CB         27.8460   26.2150   24.8710 C.3     1  DAL1       -0.0381
      6 HB1        28.9290   26.3980   24.7030 H       1  DAL1        0.0252
      7 HB2        27.5920   26.4940   25.9160 H       1  DAL1        0.0252
      8 HB3        27.1340   26.7810   24.2340 H       1  DAL1        0.0252
      9 C          27.9380   24.0520   23.4130 C.2     1  DAL1        0.2360
     10 O          27.0650   23.7640   22.5380 O.2     1  DAL1       -0.2736
     11 N          29.2790   23.8700   23.0980 N.am    2  MLE2       -0.2914
     12 CA         29.5770   23.2490   21.7970 C.3     2  MLE2        0.1023
     13 HA         28.8030   23.5010   21.0880 H       2  MLE2        0.0597
     14 CM         30.4500   24.1450   23.9710 C.3     2  MLE2        0.0040
     15 HM1        31.0410   23.2820   24.3440 H       2  MLE2        0.0429
     16 HM2        30.0810   24.7450   24.8300 H       2  MLE2        0.0429
     17 HM3        31.1270   24.8200   23.4050 H       2  MLE2        0.0429
     18 CB         30.8990   23.9390   21.0750 C.3     2  MLE2       -0.0234
     19 HB1        31.1330   23.4160   20.1230 H       2  MLE2        0.0290
     20 HB2        31.7770   23.7710   21.7340 H       2  MLE2        0.0290
     21 CG         30.8420   25.4320   20.7810 C.3     2  MLE2       -0.0446
     22 HG         30.9990   25.9760   21.7360 H       2  MLE2        0.0296
     23 CD1        31.9480   25.9170   19.8050 C.3     2  MLE2       -0.0626
     24 HD11       32.8840   25.5560   20.2810 H       2  MLE2        0.0232
     25 HD12       31.8900   26.9870   19.5100 H       2  MLE2        0.0232
     26 HD13       31.7350   25.3230   18.8900 H       2  MLE2        0.0232
     27 CD2        29.5800   25.8850   20.1050 C.3     2  MLE2       -0.0626
     28 HD21       28.6690   25.7090   20.7170 H       2  MLE2        0.0232
     29 HD22       29.5810   25.4490   19.0830 H       2  MLE2        0.0232
     30 HD23       29.6570   26.9870   19.9930 H       2  MLE2        0.0232
     31 C          29.8720   21.8090   21.9080 C.2     2  MLE2        0.2365
     32 O          30.9720   21.5550   22.4280 O.2     2  MLE2       -0.2735
     33 N          29.0180   20.8550   21.5010 N.am    3  MLE3       -0.2914
     34 CA         27.7200   21.1240   20.8570 C.3     3  MLE3        0.1023
     35 HA         27.3450   22.0910   21.1580 H       3  MLE3        0.0597
     36 CM         29.4500   19.4020   21.7550 C.3     3  MLE3        0.0040
     37 HM1        30.5560   19.3130   21.6960 H       3  MLE3        0.0429
     38 HM2        29.0300   18.7510   20.9580 H       3  MLE3        0.0429
     39 HM3        29.0900   19.1470   22.7750 H       3  MLE3        0.0429
     40 CB         27.8630   21.3070   19.3210 C.3     3  MLE3       -0.0234
     41 HB1        28.2510   20.3100   19.0200 H       3  MLE3        0.0290
     42 HB2        28.6290   22.0270   18.9600 H       3  MLE3        0.0290
     43 CG         26.5660   21.8210   18.5670 C.3     3  MLE3       -0.0446
     44 HG         25.7280   21.1430   18.8370 H       3  MLE3        0.0296
     45 CD1        26.2080   23.2110   19.0070 C.3     3  MLE3       -0.0626
     46 HD11       25.3320   23.4920   18.3840 H       3  MLE3        0.0232
     47 HD12       27.1480   23.7500   18.7620 H       3  MLE3        0.0232
     48 HD13       25.9030   23.2200   20.0760 H       3  MLE3        0.0232
     49 CD2        26.7990   21.6860   17.0450 C.3     3  MLE3       -0.0626
     50 HD21       26.8020   20.5910   16.8580 H       3  MLE3        0.0232
     51 HD22       27.7290   22.1850   16.6970 H       3  MLE3        0.0232
     52 HD23       25.9470   22.1360   16.4920 H       3  MLE3        0.0232
     53 C          26.7680   20.0240   21.1990 C.2     3  MLE3        0.2365
     54 O          26.5670   19.1310   20.3410 O.2     3  MLE3       -0.2735
     55 N          26.1770   19.9610   22.4260 N.am    4  MVA4       -0.2912
     56 CA         25.0390   19.0310   22.5470 C.3     4  MVA4        0.1044
     57 HA         24.8310   18.3610   21.7260 H       4  MVA4        0.0599
     58 CM         26.3800   20.8360   23.5170 C.3     4  MVA4        0.0040
     59 HM1        26.3720   20.2950   24.4880 H       4  MVA4        0.0429
     60 HM2        25.5400   21.5570   23.6160 H       4  MVA4        0.0429
     61 HM3        27.3160   21.4260   23.4060 H       4  MVA4        0.0429
     62 CB         25.2570   18.1020   23.6940 C.3     4  MVA4       -0.0195
     63 HB         25.1330   18.5830   24.6880 H       4  MVA4        0.0318
     64 CG1        24.1000   16.9440   23.5740 C.3     4  MVA4       -0.0605
     65 HG11       23.0770   17.3720   23.6540 H       4  MVA4        0.0233
     66 HG12       24.3230   16.2020   24.3700 H       4  MVA4        0.0233
     67 HG13       24.1010   16.4220   22.5940 H       4  MVA4        0.0233
     68 CG2        26.6270   17.4460   23.4420 C.3     4  MVA4       -0.0605
     69 HG21       26.8630   17.2120   22.3820 H       4  MVA4        0.0233
     70 HG22       26.6500   16.5320   24.0730 H       4  MVA4        0.0233
     71 HG23       27.5090   18.0110   23.8120 H       4  MVA4        0.0233
     72 C          23.7620   19.7900   22.5980 C.2     4  MVA4        0.2368
     73 O          23.4500   20.2290   23.7110 O.2     4  MVA4       -0.2735
     74 N          22.8910   20.0180   21.5480 N.am    5  BMT5       -0.2890
     75 CA         21.4960   20.3900   21.7770 C.3     5  BMT5        0.1279
     76 HA         21.4970   21.4680   21.7070 H       5  BMT5        0.0623
     77 CM         23.3320   19.8350   20.1720 C.3     5  BMT5        0.0041
     78 HM1        24.4200   19.6140   20.1810 H       5  BMT5        0.0429
     79 HM2        23.2100   20.8500   19.7380 H       5  BMT5        0.0429
     80 HM3        22.8180   19.0530   19.5730 H       5  BMT5        0.0429
     81 CB         20.4640   20.1600   20.5940 C.3     5  BMT5        0.0848
     82 HB         20.9050   20.4180   19.6070 H       5  BMT5        0.0619
     83 OG1        19.3300   21.0270   20.6750 O.3     5  BMT5       -0.3892
     84 HG1        18.6750   20.8390   21.3520 H       5  BMT5        0.2099
     85 CG2        19.9750   18.7080   20.4010 C.3     5  BMT5       -0.0153
     86 HG2        20.7030   17.9820   20.8230 H       5  BMT5        0.0324
     87 CD1        19.8500   18.2820   18.9620 C.3     5  BMT5       -0.0600
     88 HD11       20.7530   18.5800   18.3870 H       5  BMT5        0.0233
     89 HD12       18.9600   18.8300   18.5850 H       5  BMT5        0.0233
     90 HD13       19.6980   17.1890   18.8350 H       5  BMT5        0.0233
     91 CD2        18.6280   18.3350   21.1720 C.3     5  BMT5       -0.0447
     92 HD21       17.7890   18.8800   20.6890 H       5  BMT5        0.0271
     93 HD22       18.8190   18.6820   22.2100 H       5  BMT5        0.0271
     94 CE         18.3560   16.8220   21.3640 C.3     5  BMT5       -0.0348
     95 HE1        19.0170   16.3640   22.1150 H       5  BMT5        0.0306
     96 CZ         17.2780   16.1910   20.9080 C.3     5  BMT5       -0.0379
     97 HZ1        16.7400   16.6800   20.0830 H       5  BMT5        0.0304
     98 CH         16.9420   14.7810   21.2520 C.3     5  BMT5       -0.0619
     99 HH11       15.9460   14.6540   21.7260 H       5  BMT5        0.0233
    100 HH12       17.4680   14.4470   22.1720 H       5  BMT5        0.0233
    101 HH13       17.1280   14.1000   20.3940 H       5  BMT5        0.0233
    102 C          20.7690   19.9540   23.1080 C.2     5  BMT5        0.2367
    103 O          20.8860   18.8070   23.5720 O.2     5  BMT5       -0.2737
    104 N          19.9870   20.8010   23.7550 N.am    6  ABA6       -0.3024
    105 HN         19.9830   21.7690   23.5190 H       6  ABA6        0.1495
    106 CA         19.1100   20.4350   24.8630 C.3     6  ABA6        0.0994
    107 HA         19.1080   19.3800   25.0940 H       6  ABA6        0.0594
    108 CB         19.7960   20.9630   26.1250 C.3     6  ABA6       -0.0288
    109 HB1        20.0610   22.0320   25.9820 H       6  ABA6        0.0285
    110 HB2        20.7150   20.3410   26.1830 H       6  ABA6        0.0285
    111 CG         19.0050   20.6540   27.3760 C.3     6  ABA6       -0.0631
    112 HG1        18.0970   21.2930   27.3950 H       6  ABA6        0.0230
    113 HG2        18.7910   19.5650   27.4220 H       6  ABA6        0.0230
    114 HG3        19.5610   20.9400   28.2940 H       6  ABA6        0.0230
    115 C          17.6700   20.9570   24.5550 C.2     6  ABA6        0.2361
    116 O          17.5200   22.2370   24.4980 O.2     6  ABA6       -0.2736
    117 N          16.6970   20.0550   24.3270 N.am    7  SAR7       -0.2942
    118 CA         15.4710   20.4570   23.5510 C.3     7  SAR7        0.0909
    119 HA1        14.9300   20.9600   24.3390 H       7  SAR7        0.0560
    120 HA2        14.7970   19.6890   23.2020 H       7  SAR7        0.0560
    121 CM         16.7710   18.6180   24.5190 C.3     7  SAR7        0.0037
    122 HM1        17.0890   18.1970   23.5410 H       7  SAR7        0.0429
    123 HM2        17.4080   18.3430   25.3870 H       7  SAR7        0.0429
    124 HM3        15.8070   18.1630   24.8300 H       7  SAR7        0.0429
    125 C          15.7150   21.3460   22.3690 C.2     7  SAR7        0.2333
    126 O          16.6890   21.1120   21.5850 O.2     7  SAR7       -0.2739
    127 N          14.9490   22.3620   22.1050 N.am    8  MLE8       -0.2917
    128 CA         15.4400   23.3230   21.0880 C.3     8  MLE8        0.1021
    129 HA         15.3850   22.8000   20.1440 H       8  MLE8        0.0597
    130 CM         13.6730   22.4910   22.6240 C.3     8  MLE8        0.0040
    131 HM1        13.3860   21.5650   23.1650 H       8  MLE8        0.0429
    132 HM2        12.9780   22.6570   21.7730 H       8  MLE8        0.0429
    133 HM3        13.6010   23.3340   23.3440 H       8  MLE8        0.0429
    134 CB         14.4500   24.5180   20.8930 C.3     8  MLE8       -0.0234
    135 HB1        14.4070   25.1280   21.8200 H       8  MLE8        0.0290
    136 HB2        13.4240   24.1230   20.7300 H       8  MLE8        0.0290
    137 CG         14.7980   25.4970   19.8360 C.3     8  MLE8       -0.0446
    138 HG         15.8140   25.9370   19.9300 H       8  MLE8        0.0296
    139 CD1        14.5960   24.7320   18.4690 C.3     8  MLE8       -0.0626
    140 HD11       13.5220   24.5210   18.2810 H       8  MLE8        0.0232
    141 HD12       15.2660   23.8560   18.3400 H       8  MLE8        0.0232
    142 HD13       14.9000   25.4290   17.6590 H       8  MLE8        0.0232
    143 CD2        13.8640   26.6490   19.8840 C.3     8  MLE8       -0.0626
    144 HD21       13.8440   27.3940   19.0590 H       8  MLE8        0.0232
    145 HD22       14.0170   27.3130   20.7620 H       8  MLE8        0.0232
    146 HD23       12.8590   26.2010   20.0360 H       8  MLE8        0.0232
    147 C          16.8470   23.8970   21.0960 C.2     8  MLE8        0.2342
    148 O          17.4730   23.7940   20.0410 O.2     8  MLE8       -0.2738
    149 N          17.2400   24.5430   22.1950 N.am    9  VAL9       -0.3022
    150 HN         16.7700   24.4840   23.0720 H       9  VAL9        0.1495
    151 CA         18.4810   25.3640   22.2800 C.3     9  VAL9        0.1019
    152 HA         18.7090   25.8630   21.3490 H       9  VAL9        0.0597
    153 CB         18.2140   26.4990   23.2390 C.3     9  VAL9       -0.0197
    154 HB         18.0090   26.1840   24.2840 H       9  VAL9        0.0318
    155 CG1        19.3710   27.5310   23.2540 C.3     9  VAL9       -0.0605
    156 HG11       19.0600   28.3580   23.9270 H       9  VAL9        0.0233
    157 HG12       19.5410   27.8800   22.2130 H       9  VAL9        0.0233
    158 HG13       20.3120   27.0750   23.6270 H       9  VAL9        0.0233
    159 CG2        16.9710   27.2330   22.6810 C.3     9  VAL9       -0.0605
    160 HG21       17.0280   28.1650   23.2830 H       9  VAL9        0.0233
    161 HG22       15.9960   26.7260   22.8400 H       9  VAL9        0.0233
    162 HG23       17.1380   27.4150   21.5970 H       9  VAL9        0.0233
    163 C          19.7570   24.6260   22.7130 C.2     9  VAL9        0.2365
    164 O          19.6570   24.0810   23.7660 O.2     9  VAL9       -0.2735
    165 N          20.9290   24.5790   21.9920 N.am   10  MLE10      -0.2914
    166 CA         22.2580   24.1370   22.5670 C.3    10  MLE10       0.1021
    167 HA         22.2500   23.0570   22.5430 H      10  MLE10       0.0597
    168 CM         20.9780   24.6670   20.4970 C.3    10  MLE10       0.0040
    169 HM1        19.9400   24.6020   20.1070 H      10  MLE10       0.0429
    170 HM2        21.5060   23.7470   20.1670 H      10  MLE10       0.0429
    171 HM3        21.4960   25.5950   20.1700 H      10  MLE10       0.0429
    172 CB         23.5960   24.5020   21.7890 C.3    10  MLE10      -0.0234
    173 HB1        23.4910   24.1640   20.7360 H      10  MLE10       0.0290
    174 HB2        24.2980   23.7110   22.1300 H      10  MLE10       0.0290
    175 CG         24.2330   25.8970   21.9670 C.3    10  MLE10      -0.0446
    176 HG         24.5530   26.0020   23.0250 H      10  MLE10       0.0296
    177 CD1        25.3970   26.0530   20.9210 C.3    10  MLE10      -0.0626
    178 HD11       25.0490   25.6610   19.9410 H      10  MLE10       0.0232
    179 HD12       26.3000   25.4500   21.1550 H      10  MLE10       0.0232
    180 HD13       25.7440   27.1010   20.8000 H      10  MLE10       0.0232
    181 CD2        23.1560   26.9920   21.5820 C.3    10  MLE10      -0.0626
    182 HD21       22.1440   26.6810   21.9200 H      10  MLE10       0.0232
    183 HD22       23.0190   27.2790   20.5180 H      10  MLE10       0.0232
    184 HD23       23.2780   27.9330   22.1590 H      10  MLE10       0.0232
    185 C          22.5500   24.5630   24.0360 C.2    10  MLE10       0.2341
    186 O          22.1950   25.6950   24.3640 O.2    10  MLE10      -0.2738
    187 N          23.3130   23.6620   24.7450 N.am   11  ALA11      -0.3027
    188 HN         23.4990   22.7670   24.3470 H      11  ALA11       0.1495
    189 CA         23.9790   23.7430   26.0470 C.3    11  ALA11       0.0966
    190 HA         23.4500   24.5550   26.5240 H      11  ALA11       0.0592
    191 CB         23.8040   22.4290   26.7490 C.3    11  ALA11      -0.0381
    192 HB1        24.2280   22.4770   27.7750 H      11  ALA11       0.0252
    193 HB2        24.0330   21.5080   26.1700 H      11  ALA11       0.0252
    194 HB3        22.7260   22.2420   26.9420 H      11  ALA11       0.0252
    195 C          25.4630   24.1030   25.9970 C.2    11  ALA11       0.2337
    196 O          26.1940   24.0020   27.0060 O.2    11  ALA11      -0.2738
    197 C          32.1800   14.2910   14.3000 C.3    12  CCL12       0.1805
    198 CL         31.6820   13.0650   13.1520 Cl     12  CCL12      -0.0870
    199 CL         30.9500   14.3620   15.5180 Cl     12  CCL12      -0.0870
    200 CL         32.3110   15.8770   13.5880 Cl     12  CCL12      -0.0870
    201 HX         33.0540   13.9630   14.8540 H      12  CCL12       0.0806
    202 C          -4.1330   31.5310   13.8330 C.3    13  CCL13       0.1805
    203 CL         -4.3010   32.4640   15.1440 Cl     13  CCL13      -0.0870
    204 CL         -3.4550   32.4510   12.4770 Cl     13  CCL13      -0.0870
    205 CL         -5.7260   31.0360   13.4230 Cl     13  CCL13      -0.0870
    206 HX         -3.5020   30.7070   14.1530 H      13  CCL13       0.0806
    207 C          21.3540   37.5810   24.0410 C.3    14  CCL14       0.1805
    208 CL         21.4620   36.3490   25.2410 Cl     14  CCL14      -0.0870
    209 CL         23.0260   38.0560   23.3530 Cl     14  CCL14      -0.0870
    210 CL         20.6110   38.9960   24.7890 Cl     14  CCL14      -0.0870
    211 HX         20.7280   37.1670   23.2560 H      14  CCL14       0.0806
    212 C          41.2170   26.4550   39.2270 C.3    15  CCL15       0.1805
    213 CL         41.4140   27.4950   40.6520 Cl     15  CCL15      -0.0870
    214 CL         39.6080   26.5970   38.4870 Cl     15  CCL15      -0.0870
    215 CL         41.5960   24.7390   39.5060 Cl     15  CCL15      -0.0870
    216 HX         41.8050   26.8800   38.4190 H      15  CCL15       0.0806
    217 C          17.0740   13.1540    5.2830 C.3    16  CCL16       0.1805
    218 CL         16.6840   11.9430    6.5370 Cl     16  CCL16      -0.0870
    219 CL         16.9480   14.8040    5.8400 Cl     16  CCL16      -0.0870
    220 CL         16.1090   12.7790    3.8380 Cl     16  CCL16      -0.0870
    221 HX         18.1190   13.0150    5.0220 H      16  CCL16       0.0806
    222 C          49.1720   24.9220   41.5210 C.3    17  CCL17       0.1805
    223 CL         48.0580   24.9230   40.1460 Cl     17  CCL17      -0.0870
    224 CL         50.2000   26.3590   41.2190 Cl     17  CCL17      -0.0870
    225 CL         49.8990   23.3610   41.6360 Cl     17  CCL17      -0.0870
    226 HX         48.6050   25.1690   42.4130 H      17  CCL17       0.0806
    227 C          32.0060   19.2350   38.6660 C.3    18  CCL18       0.1805
    228 CL         33.4650   19.4420   37.6140 Cl     18  CCL18      -0.0870
    229 CL         32.2800   19.7920   40.2850 Cl     18  CCL18      -0.0870
    230 CL         31.2350   17.7250   38.5360 Cl     18  CCL18      -0.0870
    231 HX         31.3040   19.9620   38.2690 H      18  CCL18       0.0806
    232 C          20.7510   42.7140   14.0510 C.3    19  CCL19       0.1805
    233 CL         19.5710   43.7140   14.8580 Cl     19  CCL19      -0.0870
    234 CL         22.3460   43.1000   14.7320 Cl     19  CCL19      -0.0870
    235 CL         20.8030   42.8860   12.3900 Cl     19  CCL19      -0.0870
    236 HX         20.4730   41.6890   14.2790 H      19  CCL19       0.0806
    237 C          28.1460   44.1570   19.0540 C.3    20  CCL20       0.1805
    238 CL         27.1620   44.0680   20.5090 Cl     20  CCL20      -0.0870
    239 CL         29.6910   43.2640   19.1870 Cl     20  CCL20      -0.0870
    240 CL         28.4480   45.8340   18.7040 Cl     20  CCL20      -0.0870
    241 HX         27.5590   43.7610   18.2310 H      20  CCL20       0.0806
    242 C          -7.1910   34.2520   13.9280 C.3    21  CCL21       0.1805
    243 CL         -7.7970   34.1420   12.2980 Cl     21  CCL21      -0.0870
    244 CL         -8.5300   33.6370   14.9940 Cl     21  CCL21      -0.0870
    245 CL         -6.5730   35.9010   14.4070 Cl     21  CCL21      -0.0870
    246 HX         -6.2640   33.7090   14.0870 H      21  CCL21       0.0806
    247 C          40.8410   16.4970    3.7180 C.3    22  CCL22       0.1805
    248 CL         40.5870   16.3210    5.3800 Cl     22  CCL22      -0.0870
    249 CL         42.2570   15.6050    3.1800 Cl     22  CCL22      -0.0870
    250 CL         41.2320   18.1700    3.3630 Cl     22  CCL22      -0.0870
    251 HX         39.9390   16.2150    3.1840 H      22  CCL22       0.0806
    252 C          11.0030   29.4800   23.2500 C.3    23  CCL23       0.1805
    253 CL          9.9350   28.1410   23.1700 Cl     23  CCL23      -0.0870
    254 CL         11.2850   30.2730   21.6950 Cl     23  CCL23      -0.0870
    255 CL         12.5270   29.0100   24.0190 Cl     23  CCL23      -0.0870
    256 HX         10.5830   30.2630   23.8750 H      23  CCL23       0.0806
    257 C          32.0980   -0.9170   40.6980 C.3    24  CCL24       0.1805
    258 CL         32.1190   -2.6270   40.9810 Cl     24  CCL24      -0.0870
    259 CL         33.7390   -0.3860   40.7460 Cl     24  CCL24      -0.0870
    260 CL         30.9660   -0.1100   41.8370 Cl     24  CCL24      -0.0870
    261 HX         31.7620   -0.6920   39.6910 H      24  CCL24       0.0806
    262 C          36.7070    7.0710   22.4200 C.3    25  CCL25       0.1805
    263 CL         35.6560    6.7710   23.8590 Cl     25  CCL25      -0.0870
    264 CL         37.2920    5.5640   21.6270 Cl     25  CCL25      -0.0870
    265 CL         38.0550    8.1910   22.7940 Cl     25  CCL25      -0.0870
    266 HX         36.0090    7.4590   21.6830 H      25  CCL25       0.0806
    267 C          38.4310   38.2130   21.7950 C.3    26  CCL26       0.1805
    268 CL         39.4470   38.6840   20.3600 Cl     26  CCL26      -0.0870
    269 CL         39.2360   36.9640   22.7550 Cl     26  CCL26      -0.0870
    270 CL         36.8750   37.5130   21.1800 Cl     26  CCL26      -0.0870
    271 HX         38.3660   39.1550   22.3310 H      26  CCL26       0.0806
    272 C          28.2220   41.4620    4.0930 C.3    27  CCL27       0.1805
    273 CL         29.7840   40.6570    4.4560 Cl     27  CCL27      -0.0870
    274 CL         26.9300   40.9180    5.0970 Cl     27  CCL27      -0.0870
    275 CL         27.7720   41.3070    2.4330 Cl     27  CCL27      -0.0870
    276 HX         28.4140   42.5100    4.3060 H      27  CCL27       0.0806
    277 C          35.4320   31.1640   26.7620 C.3    28  CCL28       0.1805
    278 CL         35.2040   32.7910   26.2430 Cl     28  CCL28      -0.0870
    279 CL         37.0320   31.0560   27.4290 Cl     28  CCL28      -0.0870
    280 CL         35.0430   29.9320   25.5280 Cl     28  CCL28      -0.0870
    281 HX         34.7330   30.9150   27.5550 H      28  CCL28       0.0806
    282 C          26.1560   29.1550    9.7490 C.3    29  CCL29       0.1805
    283 CL         27.6330   28.2930    9.1980 Cl     29  CCL29      -0.0870
    284 CL         25.7150   30.5270    8.6220 Cl     29  CCL29      -0.0870
    285 CL         26.5440   29.9170   11.2900 Cl     29  CCL29      -0.0870
    286 HX         25.3290   28.4900    9.9790 H      29  CCL29       0.0806
    287 C          32.0480   25.5840   -1.5050 C.3    30  CCL30       0.1805
    288 CL         32.9490   27.1180   -1.4010 Cl     30  CCL30      -0.0870
    289 CL         31.1500   25.3590   -3.0130 Cl     30  CCL30      -0.0870
    290 CL         30.9570   25.3730   -0.0910 Cl     30  CCL30      -0.0870
    291 HX         32.8480   24.8710   -1.3260 H      30  CCL30       0.0806
    292 C          22.1800   21.7630   31.0100 C.3    31  CCL31       0.1805
    293 CL         22.8900   20.8080   29.7230 Cl     31  CCL31      -0.0870
    294 CL         20.4530   22.1100   30.7890 Cl     31  CCL31      -0.0870
    295 CL         23.1920   23.1860   31.0810 Cl     31  CCL31      -0.0870
    296 HX         22.4000   21.2060   31.9160 H      31  CCL31       0.0806
    297 C          -4.8240   22.7680   30.7760 C.3    32  CCL32       0.1805
    298 CL         -4.3210   24.4170   30.4680 Cl     32  CCL32      -0.0870
    299 CL         -5.2800   22.5680   32.4730 Cl     32  CCL32      -0.0870
    300 CL         -3.5830   21.6030   30.3050 Cl     32  CCL32      -0.0870
    301 HX         -5.7130   22.4960   30.2140 H      32  CCL32       0.0806
    302 C           2.8490   23.1110   13.4300 C.3    33  CCL33       0.1805
    303 CL          2.7130   24.1420   12.0230 Cl     33  CCL33      -0.0870
    304 CL          1.3220   22.1430   13.5600 Cl     33  CCL33      -0.0870
    305 CL          3.3020   23.9560   14.9030 Cl     33  CCL33      -0.0870
    306 HX          3.6880   22.4740   13.1630 H      33  CCL33       0.0806
    307 C          29.3140   40.7510   33.3740 C.3    34  CCL34       0.1805
    308 CL         28.1080   41.0530   34.6780 Cl     34  CCL34      -0.0870
    309 CL         29.5710   39.1230   32.9500 Cl     34  CCL34      -0.0870
    310 CL         30.8860   41.3550   33.8900 Cl     34  CCL34      -0.0870
    311 HX         29.1190   41.3480   32.4880 H      34  CCL34       0.0806
    312 C          37.8810   15.9210   16.0810 C.3    35  CCL35       0.1805
    313 CL         36.9930   17.4570   16.0120 Cl     35  CCL35      -0.0870
    314 CL         37.5950   15.0920   14.4970 Cl     35  CCL35      -0.0870
    315 CL         37.4090   15.0080   17.4900 Cl     35  CCL35      -0.0870
    316 HX         38.9450   16.1340   16.0710 H      35  CCL35       0.0806
    317 C          37.1980    1.0770   33.2880 C.3    36  CCL36       0.1805
    318 CL         37.3680    2.6610   33.9390 Cl     36  CCL36      -0.0870
    319 CL         36.3250   -0.0180   34.3310 Cl     36  CCL36      -0.0870
    320 CL         38.7020    0.4520   32.6940 Cl     36  CCL36      -0.0870
    321 HX         36.6610    1.2590   32.3610 H      36  CCL36       0.0806
    322 C          -3.1730   35.1870   23.6840 C.3    37  CCL37       0.1805
    323 CL         -4.7000   35.5200   24.5000 Cl     37  CCL37      -0.0870
    324 CL         -3.0320   33.5190   23.1430 Cl     37  CCL37      -0.0870
    325 CL         -1.7860   35.5470   24.6650 Cl     37  CCL37      -0.0870
    326 HX         -3.1180   35.8400   22.8180 H      37  CCL37       0.0806
    327 C           9.7510   21.4390   30.1630 C.3    38  CCL38       0.1805
    328 CL          8.6830   22.8130   30.1160 Cl     38  CCL38      -0.0870
    329 CL         11.2900   21.9420   30.8160 Cl     38  CCL38      -0.0870
    330 CL          9.7670   20.5980   28.5400 Cl     38  CCL38      -0.0870
    331 HX          9.3170   20.7180   30.8490 H      38  CCL38       0.0806
    332 C          46.7750   32.3880   43.9990 C.3    39  CCL39       0.1805
    333 CL         47.6780   31.2860   42.9370 Cl     39  CCL39      -0.0870
    334 CL         47.8350   33.6180   44.7490 Cl     39  CCL39      -0.0870
    335 CL         46.0870   31.3280   45.2800 Cl     39  CCL39      -0.0870
    336 HX         46.0320   32.8540   43.3590 H      39  CCL39       0.0806
    337 C          26.2440   26.2990   29.3800 C.3    40  CCL40       0.1805
    338 CL         24.5740   26.3880   30.1730 Cl     40  CCL40      -0.0870
    339 CL         27.5660   26.5840   30.4960 Cl     40  CCL40      -0.0870
    340 CL         26.3420   27.4390   28.1220 Cl     40  CCL40      -0.0870
    341 HX         26.2380   25.3230   28.9050 H      40  CCL40       0.0806
    342 C          -5.1410   16.5590    6.2270 C.3    41  CCL41       0.1805
    343 CL         -3.4860   16.4200    6.9160 Cl     41  CCL41      -0.0870
    344 CL         -5.2060   17.8990    5.0440 Cl     41  CCL41      -0.0870
    345 CL         -6.3740   16.7700    7.5100 Cl     41  CCL41      -0.0870
    346 HX         -5.4810   15.6010    5.8460 H      41  CCL41       0.0806
    347 C          -3.7500   21.5130    7.1990 C.3    42  CCL42       0.1805
    348 CL         -3.8340   22.9050    8.3370 Cl     42  CCL42      -0.0870
    349 CL         -2.3790   21.7040    6.1370 Cl     42  CCL42      -0.0870
    350 CL         -5.2630   21.3320    6.3390 Cl     42  CCL42      -0.0870
    351 HX         -3.6530   20.6160    7.8030 H      42  CCL42       0.0806
    352 C          21.9950    8.9140   -0.3830 C.3    43  CCL43       0.1805
    353 CL         23.1770    9.8870   -1.2380 Cl     43  CCL43      -0.0870
    354 CL         20.7590    8.3550   -1.4550 Cl     43  CCL43      -0.0870
    355 CL         21.2970    9.8240    0.8700 Cl     43  CCL43      -0.0870
    356 HX         22.4260    7.9660   -0.0760 H      43  CCL43       0.0806
    357 C          36.8480   30.7200   -2.7490 C.3    44  CCL44       0.1805
    358 CL         37.9030   29.8500   -1.6840 Cl     44  CCL44      -0.0870
    359 CL         36.9260   32.4940   -2.4840 Cl     44  CCL44      -0.0870
    360 CL         35.1550   30.1880   -2.4950 Cl     44  CCL44      -0.0870
    361 HX         37.1840   30.6700   -3.7800 H      44  CCL44       0.0806
    362 C           6.5260   10.6190   32.6350 C.3    45  CCL45       0.1805
    363 CL          7.8270    9.4770   32.9530 Cl     45  CCL45      -0.0870
    364 CL          7.0220   11.9570   31.6460 Cl     45  CCL45      -0.0870
    365 CL          5.8670   11.1470   34.1620 Cl     45  CCL45      -0.0870
    366 HX          5.7240   10.0750   32.1460 H      45  CCL45       0.0806
    367 C          18.4220   40.0710   33.1020 C.3    46  CCL46       0.1805
    368 CL         16.9260   39.1830   33.4400 Cl     46  CCL46      -0.0870
    369 CL         18.9410   40.8490   34.6210 Cl     46  CCL46      -0.0870
    370 CL         18.1150   41.3200   31.8720 Cl     46  CCL46      -0.0870
    371 HX         19.1530   39.3540   32.7400 H      46  CCL46       0.0806
    372 C          36.9520   29.4980   39.9910 C.3    47  CCL47       0.1805
    373 CL         37.8930   30.0170   41.4380 Cl     47  CCL47      -0.0870
    374 CL         36.0050   30.8940   39.3870 Cl     47  CCL47      -0.0870
    375 CL         35.9450   28.0850   40.1970 Cl     47  CCL47      -0.0870
    376 HX         37.8050   29.3220   39.3430 H      47  CCL47       0.0806
    377 C          34.7550   -2.4870   36.5480 C.3    48  CCL48       0.1805
    378 CL         33.8040   -2.2380   35.0610 Cl     48  CCL48      -0.0870
    379 CL         36.0540   -3.6420   36.1990 Cl     48  CCL48      -0.0870
    380 CL         33.8230   -3.1240   37.8320 Cl     48  CCL48      -0.0870
    381 HX         35.2280   -1.5830   36.9190 H      48  CCL48       0.0806
    382 C          -3.5560   10.6700    8.2060 C.3    49  CCL49       0.1805
    383 CL         -4.0090   12.2790    8.5220 Cl     49  CCL49      -0.0870
    384 CL         -3.7550    9.6300    9.5940 Cl     49  CCL49      -0.0870
    385 CL         -1.8720   10.6290    7.5250 Cl     49  CCL49      -0.0870
    386 HX         -4.2330   10.2260    7.4830 H      49  CCL49       0.0806
    387 C          33.4220   32.2600    7.5960 C.3    50  CCL50       0.1805
    388 CL         32.4210   31.8390    6.1970 Cl     50  CCL50      -0.0870
    389 CL         33.4290   34.0250    7.8250 Cl     50  CCL50      -0.0870
    390 CL         34.8710   31.3480    7.6170 Cl     50  CCL50      -0.0870
    391 HX         32.7750   31.9340    8.4050 H      50  CCL50       0.0806
    392 C          -4.7150   22.7930   25.8710 C.3    51  CCL51       0.1805
    393 CL         -3.6430   22.0670   26.9570 Cl     51  CCL51      -0.0870
    394 CL         -4.0290   22.9020   24.2420 Cl     51  CCL51      -0.0870
    395 CL         -5.2700   24.3410   26.4130 Cl     51  CCL51      -0.0870
    396 HX         -5.5530   22.1040   25.9230 H      51  CCL51       0.0806
    397 C          27.5660   16.1950   37.2810 C.3    52  CCL52       0.1805
    398 CL         27.0150   14.4910   37.1820 Cl     52  CCL52      -0.0870
    399 CL         28.0130   16.6790   38.8840 Cl     52  CCL52      -0.0870
    400 CL         26.3490   17.2000   36.5760 Cl     52  CCL52      -0.0870
    401 HX         28.4420   16.2680   36.6430 H      52  CCL52       0.0806
    402 C          19.2860   36.4400   52.3270 C.3    53  CCL53       0.1805
    403 CL         18.1390   37.6100   52.9570 Cl     53  CCL53      -0.0870
    404 CL         19.5910   36.8580   50.6110 Cl     53  CCL53      -0.0870
    405 CL         18.8180   34.7090   52.4750 Cl     53  CCL53      -0.0870
    406 HX         20.1970   36.5720   52.9030 H      53  CCL53       0.0806
    407 C          42.4070   34.9690   43.9670 C.3    54  CCL54       0.1805
    408 CL         43.6420   35.9530   44.7920 Cl     54  CCL54      -0.0870
    409 CL         41.5800   33.9440   45.0660 Cl     54  CCL54      -0.0870
    410 CL         43.2540   34.1100   42.6870 Cl     54  CCL54      -0.0870
    411 HX         41.6800   35.7010   43.6270 H      54  CCL54       0.0806
    412 C          13.9630   15.5060   43.2110 C.3    55  CCL55       0.1805
    413 CL         14.3630   14.4590   44.5320 Cl     55  CCL55      -0.0870
    414 CL         15.4620   16.3200   42.5980 Cl     55  CCL55      -0.0870
    415 CL         12.6910   16.6670   43.6970 Cl     55  CCL55      -0.0870
    416 HX         13.6510   14.8920   42.3710 H      55  CCL55       0.0806
    417 C          37.1860   18.6020   27.9150 C.3    56  CCL56       0.1805
    418 CL         36.0970   19.0660   29.1670 Cl     56  CCL56      -0.0870
    419 CL         37.1700   16.8620   27.7500 Cl     56  CCL56      -0.0870
    420 CL         38.7740   19.2220   28.2340 Cl     56  CCL56      -0.0870
    421 HX         36.9040   19.0620   26.9730 H      56  CCL56       0.0806
    422 C          24.7050   -2.9640   21.8970 C.3    57  CCL57       0.1805
    423 CL         25.0810   -1.1850   22.0530 Cl     57  CCL57      -0.0870
    424 CL         23.5910   -3.4410   23.2360 Cl     57  CCL57      -0.0870
    425 CL         26.1990   -3.9320   21.9250 Cl     57  CCL57      -0.0870
    426 HX         24.2130   -3.0120   20.9300 H      57  CCL57       0.0806
    427 C           0.0640   25.0290   36.8330 C.3    58  CCL58       0.1805
    428 CL         -0.5740   25.0960   35.2010 Cl     58  CCL58      -0.0870
    429 CL          0.3550   26.7580   37.1390 Cl     58  CCL58      -0.0870
    430 CL          1.5380   24.0610   36.7220 Cl     58  CCL58      -0.0870
    431 HX         -0.7220   24.6900   37.5010 H      58  CCL58       0.0806
    432 C           2.3760    7.9670    8.1290 C.3    59  CCL59       0.1805
    433 CL          1.1960    9.0610    8.9290 Cl     59  CCL59      -0.0870
    434 CL          2.5060    6.3910    8.8740 Cl     59  CCL59      -0.0870
    435 CL          4.0410    8.6250    8.1030 Cl     59  CCL59      -0.0870
    436 HX          2.0460    7.8930    7.0970 H      59  CCL59       0.0806
    437 C          45.1690   11.4270   21.5610 C.3    60  CCL60       0.1805
    438 CL         44.9490   13.0620   20.9990 Cl     60  CCL60      -0.0870
    439 CL         46.6480   10.7180   20.9560 Cl     60  CCL60      -0.0870
    440 CL         43.8880   10.4950   20.9640 Cl     60  CCL60      -0.0870
    441 HX         45.0500   11.3690   22.6390 H      60  CCL60       0.0806
    442 C          -3.7960   31.3740   44.6420 C.3    61  CCL61       0.1805
    443 CL         -2.8390   32.7940   44.9840 Cl     61  CCL61      -0.0870
    444 CL         -3.0600   30.4750   43.2430 Cl     61  CCL61      -0.0870
    445 CL         -5.5220   31.8940   44.2140 Cl     61  CCL61      -0.0870
    446 HX         -3.9280   30.7010   45.4840 H      61  CCL61       0.0806
    447 C          -8.0250   27.5090   27.0870 C.3    62  CCL62       0.1805
    448 CL         -9.0620   26.1700   26.5490 Cl     62  CCL62      -0.0870
    449 CL         -8.9480   28.9570   27.5400 Cl     62  CCL62      -0.0870
    450 CL         -6.7810   27.7960   25.8850 Cl     62  CCL62      -0.0870
    451 HX         -7.4740   27.1570   27.9550 H      62  CCL62       0.0806
    452 C          24.4990    9.6840   19.4530 C.3    63  CCL63       0.1805
    453 CL         23.5760   11.0450   18.9030 Cl     63  CCL63      -0.0870
    454 CL         23.6770    8.5300   20.5230 Cl     63  CCL63      -0.0870
    455 CL         26.0130   10.3430   20.0450 Cl     63  CCL63      -0.0870
    456 HX         24.6130    9.1030   18.5430 H      63  CCL63       0.0806
    457 C          38.1580   10.8670    4.6270 C.3    64  CCL64       0.1805
    458 CL         37.9060    9.5900    5.7660 Cl     64  CCL64      -0.0870
    459 CL         37.5010   10.2710    3.0770 Cl     64  CCL64      -0.0870
    460 CL         39.8500   11.2890    4.4300 Cl     64  CCL64      -0.0870
    461 HX         37.7050   11.7780    5.0060 H      64  CCL64       0.0806
    462 C          32.7030   -0.3200   31.5030 C.3    65  CCL65       0.1805
    463 CL         34.2710    0.3070   30.9820 Cl     65  CCL65      -0.0870
    464 CL         31.4180   -0.2270   30.3170 Cl     65  CCL65      -0.0870
    465 CL         32.2110    0.4390   33.0320 Cl     65  CCL65      -0.0870
    466 HX         32.7840   -1.3800   31.7250 H      65  CCL65       0.0806
    467 C          11.6140    0.3490   51.0280 C.3    66  CCL66       0.1805
    468 CL          9.9960   -0.0590   51.5860 Cl     66  CCL66      -0.0870
    469 CL         12.7820   -1.0140   51.4090 Cl     66  CCL66      -0.0870
    470 CL         12.1190    1.7550   51.8950 Cl     66  CCL66      -0.0870
    471 HX         11.5740    0.4170   49.9440 H      66  CCL66       0.0806
    472 C          24.8830   35.3410   49.9540 C.3    67  CCL67       0.1805
    473 CL         24.5030   35.6430   51.6570 Cl     67  CCL67      -0.0870
    474 CL         25.5560   36.7550   49.1620 Cl     67  CCL67      -0.0870
    475 CL         23.2920   34.8420   49.1800 Cl     67  CCL67      -0.0870
    476 HX         25.5240   34.4720   49.8350 H      67  CCL67       0.0806
    477 C          31.4450   18.9040   25.0930 C.3    68  CCL68       0.1805
    478 CL         31.4360   17.1690   25.0400 Cl     68  CCL68      -0.0870
    479 CL         32.8920   19.3790   25.9890 Cl     68  CCL68      -0.0870
    480 CL         30.0920   19.6680   25.7370 Cl     68  CCL68      -0.0870
    481 HX         31.5140   19.2400   24.0630 H      68  CCL68       0.0806
    482 C          27.4400    6.3090   47.6010 C.3    69  CCL69       0.1805
    483 CL         28.3360    5.1940   46.6200 Cl     69  CCL69      -0.0870
    484 CL         28.4790    7.1970   48.7600 Cl     69  CCL69      -0.0870
    485 CL         26.0930    5.4920   48.3980 Cl     69  CCL69      -0.0870
    486 HX         26.9510    7.0820   47.0160 H      69  CCL69       0.0806
    487 C          11.8720   20.5120   10.4780 C.3    70  CCL70       0.1805
    488 CL         10.9080   21.6240   11.4520 Cl     70  CCL70      -0.0870
    489 CL         13.0070   19.4600   11.3810 Cl     70  CCL70      -0.0870
    490 CL         12.7040   21.3720    9.1360 Cl     70  CCL70      -0.0870
    491 HX         11.1910   19.8160    9.9970 H      70  CCL70       0.0806
    492 C          14.8520   24.9760   11.8840 C.3    71  CCL71       0.1805
    493 CL         13.3840   24.9730   10.8870 Cl     71  CCL71      -0.0870
    494 CL         16.2040   25.9370   11.1330 Cl     71  CCL71      -0.0870
    495 CL         15.4420   23.2800   12.0350 Cl     71  CCL71      -0.0870
    496 HX         14.5930   25.4270   12.8380 H      71  CCL71       0.0806
    497 C          38.2560    2.7350   15.0670 C.3    72  CCL72       0.1805
    498 CL         37.8050    3.1970   13.4160 Cl     72  CCL72      -0.0870
    499 CL         39.3590    3.8900   15.8620 Cl     72  CCL72      -0.0870
    500 CL         38.9940    1.1070   15.1530 Cl     72  CCL72      -0.0870
    501 HX         37.3600    2.7690   15.6790 H      72  CCL72       0.0806
    502 C          50.6360    8.5830   19.6250 C.3    73  CCL73       0.1805
    503 CL         49.6440    7.5390   20.6350 Cl     73  CCL73      -0.0870
    504 CL         51.2630    9.7490   20.7510 Cl     73  CCL73      -0.0870
    505 CL         49.7420    9.4760   18.4020 Cl     73  CCL73      -0.0870
    506 HX         51.4750    8.0620   19.1720 H      73  CCL73       0.0806
    507 C          41.2450   -1.9490   35.0410 C.3    74  CCL74       0.1805
    508 CL         42.9810   -1.9900   34.9950 Cl     74  CCL74      -0.0870
    509 CL         40.6290   -1.5610   36.6760 Cl     74  CCL74      -0.0870
    510 CL         40.6090   -3.5580   34.5220 Cl     74  CCL74      -0.0870
    511 HX         40.9460   -1.1320   34.3920 H      74  CCL74       0.0806
    512 C          27.1530   15.8520   32.4960 C.3    75  CCL75       0.1805
    513 CL         26.5310   14.5160   31.5690 Cl     75  CCL75      -0.0870
    514 CL         28.3020   15.4950   33.8270 Cl     75  CCL75      -0.0870
    515 CL         25.8160   16.8750   33.0810 Cl     75  CCL75      -0.0870
    516 HX         27.7550   16.4250   31.7970 H      75  CCL75       0.0806
    517 C          31.7630    7.1120   33.7860 C.3    76  CCL76       0.1805
    518 CL         32.0410    5.4860   34.4570 Cl     76  CCL76      -0.0870
    519 CL         31.5910    7.0520   32.0350 Cl     76  CCL76      -0.0870
    520 CL         32.7710    8.3430   34.5090 Cl     76  CCL76      -0.0870
    521 HX         30.7750    7.4000   34.1330 H      76  CCL76       0.0806
    522 C          -5.8510   19.0020   11.0830 C.3    77  CCL77       0.1805
    523 CL         -4.6730   18.8060   12.3740 Cl     77  CCL77      -0.0870
    524 CL         -5.5570   20.4450   10.1660 Cl     77  CCL77      -0.0870
    525 CL         -7.3730   19.0560   11.9420 Cl     77  CCL77      -0.0870
    526 HX         -5.9320   18.2090   10.3440 H      77  CCL77       0.0806
    527 C          28.7900   -6.9810   38.8000 C.3    78  CCL78       0.1805
    528 CL         28.7980   -8.2820   37.6480 Cl     78  CCL78      -0.0870
    529 CL         27.1710   -6.6250   39.3370 Cl     78  CCL78      -0.0870
    530 CL         29.4540   -5.5290   38.0360 Cl     78  CCL78      -0.0870
    531 HX         29.2750   -7.4210   39.6670 H      78  CCL78       0.0806
    532 C          19.3090   23.3710   13.2540 C.3    79  CCL79       0.1805
    533 CL         19.3040   25.1600   13.4910 Cl     79  CCL79      -0.0870
    534 CL         20.5120   22.4180   14.1070 Cl     79  CCL79      -0.0870
    535 CL         19.2540   22.8580   11.5670 Cl     79  CCL79      -0.0870
    536 HX         18.3540   22.9440   13.5480 H      79  CCL79       0.0806
    537 C          51.5540   16.0630   34.3410 C.3    80  CCL80       0.1805
    538 CL         51.5460   16.5120   32.6300 Cl     80  CCL80      -0.0870
    539 CL         50.5120   14.7520   34.5730 Cl     80  CCL80      -0.0870
    540 CL         51.1110   17.4150   35.3820 Cl     80  CCL80      -0.0870
    541 HX         52.6130   15.8710   34.4820 H      80  CCL80       0.0806
    542 C           3.9450   14.3770   39.8420 C.3    81  CCL81       0.1805
    543 CL          4.3040   14.0610   41.5440 Cl     81  CCL81      -0.0870
    544 CL          5.0750   15.5950   39.1630 Cl     81  CCL81      -0.0870
    545 CL          2.1830   14.6590   39.6570 Cl     81  CCL81      -0.0870
    546 HX          4.1970   13.4700   39.2990 H      81  CCL81       0.0806
    547 C          35.4790   29.4360   12.0520 C.3    82  CCL82       0.1805
    548 CL         35.0910   28.8580   10.4080 Cl     82  CCL82      -0.0870
    549 CL         35.1480   31.1490   12.2040 Cl     82  CCL82      -0.0870
    550 CL         37.1460   29.2190   12.7230 Cl     82  CCL82      -0.0870
    551 HX         34.8690   28.8400   12.7260 H      82  CCL82       0.0806
    552 C          14.7060   33.6980   24.8310 C.3    83  CCL83       0.1805
    553 CL         16.3260   33.7960   25.3080 Cl     83  CCL83      -0.0870
    554 CL         13.6060   33.6430   26.1930 Cl     83  CCL83      -0.0870
    555 CL         14.4570   32.3770   23.5880 Cl     83  CCL83      -0.0870
    556 HX         14.3840   34.6310   24.3770 H      83  CCL83       0.0806
    557 C          17.0300   33.6430   39.9760 C.3    84  CCL84       0.1805
    558 CL         18.7010   33.7500   39.3120 Cl     84  CCL84      -0.0870
    559 CL         17.0760   32.8590   41.5500 Cl     84  CCL84      -0.0870
    560 CL         15.8720   32.8050   38.9720 Cl     84  CCL84      -0.0870
    561 HX         16.7990   34.7020   40.0480 H      84  CCL84       0.0806
    562 C          47.2790    4.2130   33.8960 C.3    85  CCL85       0.1805
    563 CL         47.1840    4.4740   32.1380 Cl     85  CCL85      -0.0870
    564 CL         46.4390    5.5560   34.6040 Cl     85  CCL85      -0.0870
    565 CL         48.9020    3.9970   34.4580 Cl     85  CCL85      -0.0870
    566 HX         46.7690    3.2730   34.0860 H      85  CCL85       0.0806
    567 C           0.7960   14.1660   45.3180 C.3    86  CCL86       0.1805
    568 CL          2.0230   15.3840   44.9290 Cl     86  CCL86      -0.0870
    569 CL          0.8480   12.8040   44.1960 Cl     86  CCL86      -0.0870
    570 CL         -0.8340   14.9130   45.1340 Cl     86  CCL86      -0.0870
    571 HX          0.7710   13.8170   46.3460 H      86  CCL86       0.0806
    572 C          16.8260    0.6860   29.1270 C.3    87  CCL87       0.1805
    573 CL         16.2520    1.3060   27.6100 Cl     87  CCL87      -0.0870
    574 CL         16.5730    1.8410   30.4390 Cl     87  CCL87      -0.0870
    575 CL         18.5300    0.3240   28.9910 Cl     87  CCL87      -0.0870
    576 HX         16.2770   -0.2120   29.3960 H      87  CCL87       0.0806
    577 C           7.6420   -3.1830   16.8860 C.3    88  CCL88       0.1805
    578 CL          7.3720   -2.9380   15.1640 Cl     88  CCL88      -0.0870
    579 CL          9.1530   -2.5500   17.5050 Cl     88  CCL88      -0.0870
    580 CL          7.4160   -4.8660   17.2040 Cl     88  CCL88      -0.0870
    581 HX          6.8570   -2.6620   17.4250 H      88  CCL88       0.0806
    582 C          19.4340   33.1270   22.1010 C.3    89  CCL89       0.1805
    583 CL         21.0820   33.2800   21.7980 Cl     89  CCL89      -0.0870
    584 CL         18.9410   34.4680   23.0800 Cl     89  CCL89      -0.0870
    585 CL         19.1240   31.5980   22.9110 Cl     89  CCL89      -0.0870
    586 HX         18.7720   33.1800   21.2410 H      89  CCL89       0.0806
    587 C           5.1060   -1.3260   12.0060 C.3    90  CCL90       0.1805
    588 CL          4.6180   -0.5890   13.5900 Cl     90  CCL90      -0.0870
    589 CL          5.0360   -3.0780   12.0610 Cl     90  CCL90      -0.0870
    590 CL          6.8640   -0.9570   11.7530 Cl     90  CCL90      -0.0870
    591 HX          4.5530   -0.9200   11.1640 H      90  CCL90       0.0806
    592 C          15.2980   19.8300   14.4950 C.3    91  CCL91       0.1805
    593 CL         14.5900   18.3640   15.1660 Cl     91  CCL91      -0.0870
    594 CL         14.1700   21.2230   14.5080 Cl     91  CCL91      -0.0870
    595 CL         16.2280   19.4950   12.9940 Cl     91  CCL91      -0.0870
    596 HX         16.1120   20.1420   15.1420 H      91  CCL91       0.0806
    597 C          24.3140   24.6010    1.7370 C.3    92  CCL92       0.1805
    598 CL         22.5350   24.7170    1.7540 Cl     92  CCL92      -0.0870
    599 CL         25.1280   26.1680    1.4750 Cl     92  CCL92      -0.0870
    600 CL         24.8970   23.4890    0.5340 Cl     92  CCL92      -0.0870
    601 HX         24.4960   24.2700    2.7560 H      92  CCL92       0.0806
    602 C          14.5790   35.3440    2.5740 C.3    93  CCL93       0.1805
    603 CL         13.6420   34.6770    1.2750 Cl     93  CCL93      -0.0870
    604 CL         15.9000   36.2590    1.8860 Cl     93  CCL93      -0.0870
    605 CL         15.2110   34.1560    3.7300 Cl     93  CCL93      -0.0870
    606 HX         13.9460   36.0240    3.1370 H      93  CCL93       0.0806
    607 C          14.6590    7.0000   49.8370 C.3    94  CCL94       0.1805
    608 CL         14.1280    8.6640   50.0270 Cl     94  CCL94      -0.0870
    609 CL         16.3160    6.8130   50.5050 Cl     94  CCL94      -0.0870
    610 CL         14.5810    6.4920   48.1710 Cl     94  CCL94      -0.0870
    611 HX         13.9590    6.3580   50.3650 H      94  CCL94       0.0806
    612 C          15.3160    8.0920   30.4900 C.3    95  CCL95       0.1805
    613 CL         15.9660    9.6150   31.0880 Cl     95  CCL95      -0.0870
    614 CL         16.6270    7.1100   29.8840 Cl     95  CCL95      -0.0870
    615 CL         14.1030    8.2970   29.1340 Cl     95  CCL95      -0.0870
    616 HX         14.8950    7.5800   31.3500 H      95  CCL95       0.0806
    617 C          48.7790   11.9580   24.2330 C.3    96  CCL96       0.1805
    618 CL         49.0080   12.6420   22.5540 Cl     96  CCL96      -0.0870
    619 CL         47.0680   11.6910   24.6990 Cl     96  CCL96      -0.0870
    620 CL         49.5860   13.0280   25.4630 Cl     96  CCL96      -0.0870
    621 HX         49.3790   11.0530   24.2290 H      96  CCL96       0.0806
    622 C          16.1260    4.3930   10.0340 C.3    97  CCL97       0.1805
    623 CL         16.5240    6.0950    9.9730 Cl     97  CCL97      -0.0870
    624 CL         15.6950    3.8650    8.4250 Cl     97  CCL97      -0.0870
    625 CL         14.8450    3.8730   11.1070 Cl     97  CCL97      -0.0870
    626 HX         16.9890    3.7850   10.2870 H      97  CCL97       0.0806
    627 C          24.1040   -1.3680    3.8060 C.3    98  CCL98       0.1805
    628 CL         24.9250   -2.9330    4.0210 Cl     98  CCL98      -0.0870
    629 CL         24.5970   -0.2440    5.0610 Cl     98  CCL98      -0.0870
    630 CL         22.3510   -1.6230    3.8230 Cl     98  CCL98      -0.0870
    631 HX         24.3850   -0.9590    2.8400 H      98  CCL98       0.0806
    632 C          -3.0200    5.6750    6.9050 C.3    99  CCL99       0.1805
    633 CL         -3.0180    4.0050    7.5280 Cl     99  CCL99      -0.0870
    634 CL         -1.3900    6.3240    6.7150 Cl     99  CCL99      -0.0870
    635 CL         -3.8810    6.8000    7.9730 Cl     99  CCL99      -0.0870
    636 HX         -3.6080    5.6690    5.9910 H      99  CCL99       0.0806
    637 C           3.1860    7.2410   33.6200 C.3   100  CCL100      0.1805
    638 CL          2.1410    6.0640   32.8810 Cl    100  CCL100     -0.0870
    639 CL          2.4430    8.8070   33.8190 Cl    100  CCL100     -0.0870
    640 CL          4.7480    7.2860   32.8510 Cl    100  CCL100     -0.0870
    641 HX          3.4340    6.9920   34.6480 H     100  CCL100      0.0806
    642 C           5.4790    8.1100   12.9740 C.3   101  CCL101      0.1805
    643 CL          4.4780    7.2930   11.7570 Cl    101  CCL101     -0.0870
    644 CL          6.0460    7.1170   14.2520 Cl    101  CCL101     -0.0870
    645 CL          4.6250    9.5260   13.6770 Cl    101  CCL101     -0.0870
    646 HX          6.3940    8.4440   12.4940 H     101  CCL101      0.0806
    647 C          15.7510   -2.4200   32.7460 C.3   102  CCL102      0.1805
    648 CL         17.2320   -1.9340   32.0310 Cl    102  CCL102     -0.0870
    649 CL         15.2780   -4.0380   32.1690 Cl    102  CCL102     -0.0870
    650 CL         14.5930   -1.1320   32.5480 Cl    102  CCL102     -0.0870
    651 HX         15.9060   -2.4560   33.8200 H     102  CCL102      0.0806
    652 C          41.7520   14.6310   29.7400 C.3   103  CCL103      0.1805
    653 CL         42.7730   14.4020   28.4190 Cl    103  CCL103     -0.0870
    654 CL         40.0690   14.8110   29.3150 Cl    103  CCL103     -0.0870
    655 CL         42.3010   16.0220   30.6800 Cl    103  CCL103     -0.0870
    656 HX         41.8100   13.8340   30.4750 H     103  CCL103      0.0806
    657 C          39.0450   37.9890   47.0830 C.3   104  CCL104      0.1805
    658 CL         37.8030   36.8660   47.7010 Cl    104  CCL104     -0.0870
    659 CL         38.2760   39.2550   46.0980 Cl    104  CCL104     -0.0870
    660 CL         40.2840   37.1610   46.1180 Cl    104  CCL104     -0.0870
    661 HX         39.5360   38.5300   47.8860 H     104  CCL104      0.0806
    662 C          31.0590   32.7220   43.6890 C.3   105  CCL105      0.1805
    663 CL         30.8180   31.0460   44.1000 Cl    105  CCL105     -0.0870
    664 CL         29.9740   33.1760   42.2790 Cl    105  CCL105     -0.0870
    665 CL         32.6790   32.8760   43.1410 Cl    105  CCL105     -0.0870
    666 HX         30.9580   33.2670   44.6220 H     105  CCL105      0.0806
    667 C          12.6330   27.4950   46.8410 C.3   106  CCL106      0.1805
    668 CL         12.6500   29.2320   46.5890 Cl    106  CCL106     -0.0870
    669 CL         14.1710   26.7160   46.2250 Cl    106  CCL106     -0.0870
    670 CL         11.1660   26.7240   46.2170 Cl    106  CCL106     -0.0870
    671 HX         12.6390   27.2770   47.9040 H     106  CCL106      0.0806
    672 C           0.0870   38.4360   17.4800 C.3   107  CCL107      0.1805
    673 CL          1.7760   38.9240   17.2170 Cl    107  CCL107     -0.0870
    674 CL         -0.8100   38.1890   15.9590 Cl    107  CCL107     -0.0870
    675 CL         -0.7480   39.6330   18.4800 Cl    107  CCL107     -0.0870
    676 HX          0.1340   37.4170   17.8520 H     107  CCL107      0.0806
    677 C          -7.8050   26.7340   20.3300 C.3   108  CCL108      0.1805
    678 CL         -9.2520   25.8700   20.8830 Cl    108  CCL108     -0.0870
    679 CL         -6.8220   25.5360   19.3560 Cl    108  CCL108     -0.0870
    680 CL         -6.8290   27.4170   21.5770 Cl    108  CCL108     -0.0870
    681 HX         -8.1190   27.5580   19.6950 H     108  CCL108      0.0806
    682 C          34.3510   42.2800    3.8900 C.3   109  CCL109      0.1805
    683 CL         35.5220   41.3110    2.9530 Cl    109  CCL109     -0.0870
    684 CL         34.6840   41.9740    5.5220 Cl    109  CCL109     -0.0870
    685 CL         32.6930   41.9000    3.5000 Cl    109  CCL109     -0.0870
    686 HX         34.5690   43.3090    3.6210 H     109  CCL109      0.0806
    687 C          15.6160   37.6530   23.3460 C.3   110  CCL110      0.1805
    688 CL         14.4560   38.2580   24.4750 Cl    110  CCL110     -0.0870
    689 CL         15.0520   36.2320   22.4960 Cl    110  CCL110     -0.0870
    690 CL         16.9810   37.1940   24.3470 Cl    110  CCL110     -0.0870
    691 HX         15.9480   38.4370   22.6720 H     110  CCL110      0.0806
    692 C          36.8610   12.6670   36.9790 C.3   111  CCL111      0.1805
    693 CL         38.2090   12.3020   36.0270 Cl    111  CCL111     -0.0870
    694 CL         37.2560   13.8870   38.1880 Cl    111  CCL111     -0.0870
    695 CL         36.1140   11.2790   37.7100 Cl    111  CCL111     -0.0870
    696 HX         36.1130   13.1840   36.3860 H     111  CCL111      0.0806
    697 C           8.2250   11.9100   14.8640 C.3   112  CCL112      0.1805
    698 CL          9.8900   12.3240   15.4170 Cl    112  CCL112     -0.0870
    699 CL          7.5660   10.6210   15.9470 Cl    112  CCL112     -0.0870
    700 CL          8.2640   11.3760   13.1630 Cl    112  CCL112     -0.0870
    701 HX          7.6040   12.7950   14.9690 H     112  CCL112      0.0806
    702 C          17.1430   21.0500   51.6410 C.3   113  CCL113      0.1805
    703 CL         15.7140   21.6900   50.8240 Cl    113  CCL113     -0.0870
    704 CL         17.4570   21.9870   53.0880 Cl    113  CCL113     -0.0870
    705 CL         18.5430   21.0270   50.5830 Cl    113  CCL113     -0.0870
    706 HX         17.0020   20.0230   51.9670 H     113  CCL113      0.0806
    707 C           3.2550   -9.1050    3.3840 C.3   114  CCL114      0.1805
    708 CL          2.2620   -8.5810    1.9800 Cl    114  CCL114     -0.0870
    709 CL          4.5780   -7.9060    3.6580 Cl    114  CCL114     -0.0870
    710 CL          3.8880  -10.7100    3.2750 Cl    114  CCL114     -0.0870
    711 HX          2.5990   -8.9530    4.2360 H     114  CCL114      0.0806
    712 C          13.4860   14.7190    9.0550 C.3   115  CCL115      0.1805
    713 CL         15.0560   14.7890    9.8380 Cl    115  CCL115     -0.0870
    714 CL         12.4670   13.5940    9.8950 Cl    115  CCL115     -0.0870
    715 CL         13.5910   14.3960    7.3190 Cl    115  CCL115     -0.0870
    716 HX         13.0240   15.6860    9.2330 H     115  CCL115      0.0806
    717 C           4.0350   29.5040   10.8080 C.3   116  CCL116      0.1805
    718 CL          2.3000   29.7460   10.5760 Cl    116  CCL116     -0.0870
    719 CL          4.7220   31.1170   10.9450 Cl    116  CCL116     -0.0870
    720 CL          4.7950   28.7290    9.4590 Cl    116  CCL116     -0.0870
    721 HX          4.2930   28.9950   11.7320 H     116  CCL116      0.0806
    722 C          27.8960   27.5230   44.4910 C.3   117  CCL117      0.1805
    723 CL         28.1240   26.8370   42.8600 Cl    117  CCL117     -0.0870
    724 CL         28.0000   26.3150   45.7230 Cl    117  CCL117     -0.0870
    725 CL         26.3750   28.4370   44.6740 Cl    117  CCL117     -0.0870
    726 HX         28.7060   28.2060   44.7290 H     117  CCL117      0.0806
    727 C          23.6300   40.5890   51.3090 C.3   118  CCL118      0.1805
    728 CL         24.7520   40.5900   49.9510 Cl    118  CCL118     -0.0870
    729 CL         24.4510   41.2420   52.8020 Cl    118  CCL118     -0.0870
    730 CL         23.1050   38.9430   51.5240 Cl    118  CCL118     -0.0870
    731 HX         22.8130   41.2630   51.0690 H     118  CCL118      0.0806
    732 C          19.2150   16.0110   27.3200 C.3   119  CCL119      0.1805
    733 CL         17.8420   14.9620   26.9990 Cl    119  CCL119     -0.0870
    734 CL         20.5930   15.6540   26.2540 Cl    119  CCL119     -0.0870
    735 CL         19.6900   15.8820   29.0290 Cl    119  CCL119     -0.0870
    736 HX         18.8570   17.0190   27.1310 H     119  CCL119      0.0806
    737 C          21.9800    3.0070   38.6200 C.3   120  CCL120      0.1805
    738 CL         20.6650    4.0930   38.2750 Cl    120  CCL120     -0.0870
    739 CL         23.4540    3.8540   38.1180 Cl    120  CCL120     -0.0870
    740 CL         21.7630    1.5670   37.7180 Cl    120  CCL120     -0.0870
    741 HX         21.9190    2.7930   39.6830 H     120  CCL120      0.0806
    742 C           9.7580    0.2160    5.5870 C.3   121  CCL121      0.1805
    743 CL         11.4400    0.5840    5.0690 Cl    121  CCL121     -0.0870
    744 CL          8.6920    1.6140    5.5100 Cl    121  CCL121     -0.0870
    745 CL          9.7920   -0.4060    7.2400 Cl    121  CCL121     -0.0870
    746 HX          9.3400   -0.4200    4.8120 H     121  CCL121      0.0806
    747 C          17.7270   37.7060   43.9200 C.3   122  CCL122      0.1805
    748 CL         18.8220   38.9500   43.3290 Cl    122  CCL122     -0.0870
    749 CL         17.3900   36.5260   42.7140 Cl    122  CCL122     -0.0870
    750 CL         16.3510   38.2460   44.8400 Cl    122  CCL122     -0.0870
    751 HX         18.3200   37.1120   44.6090 H     122  CCL122      0.0806
    752 C          16.8840   26.0620   38.6300 C.3   123  CCL123      0.1805
    753 CL         15.8700   27.2840   39.4040 Cl    123  CCL123     -0.0870
    754 CL         16.6630   26.2590   36.8290 Cl    123  CCL123     -0.0870
    755 CL         16.4360   24.4030   39.1580 Cl    123  CCL123     -0.0870
    756 HX         17.9000   26.2230   38.9790 H     123  CCL123      0.0806
    757 C          29.8750   11.6960    5.5090 C.3   124  CCL124      0.1805
    758 CL         28.2500   11.2530    6.0420 Cl    124  CCL124     -0.0870
    759 CL         29.9810   13.2050    4.5230 Cl    124  CCL124     -0.0870
    760 CL         30.4220   10.3550    4.5270 Cl    124  CCL124     -0.0870
    761 HX         30.4740   11.8130    6.4070 H     124  CCL124      0.0806
    762 C          35.4020   25.6130   17.1310 C.3   125  CCL125      0.1805
    763 CL         35.0410   26.8570   18.3630 Cl    125  CCL125     -0.0870
    764 CL         35.2740   26.2640   15.4420 Cl    125  CCL125     -0.0870
    765 CL         34.2520   24.2820   17.3090 Cl    125  CCL125     -0.0870
    766 HX         36.4070   25.2120   17.2270 H     125  CCL125      0.0806
    767 C          50.4600    1.8570   38.5740 C.3   126  CCL126      0.1805
    768 CL         51.4590    2.8230   39.6300 Cl    126  CCL126     -0.0870
    769 CL         50.9080    0.2030   38.6220 Cl    126  CCL126     -0.0870
    770 CL         50.5970    2.3680   36.8610 Cl    126  CCL126     -0.0870
    771 HX         49.4190    1.9520   38.8690 H     126  CCL126      0.0806
    772 C          12.6630   -8.2440   42.5080 C.3   127  CCL127      0.1805
    773 CL         12.7520   -7.0070   43.7810 Cl    127  CCL127     -0.0870
    774 CL         13.2470   -7.5530   41.0400 Cl    127  CCL127     -0.0870
    775 CL         10.9580   -8.8360   42.2710 Cl    127  CCL127     -0.0870
    776 HX         13.3650   -9.0450   42.7230 H     127  CCL127      0.0806
    777 C          25.5820   26.9430   33.9000 C.3   128  CCL128      0.1805
    778 CL         24.7880   26.6300   35.3940 Cl    128  CCL128     -0.0870
    779 CL         27.1610   26.1010   33.8060 Cl    128  CCL128     -0.0870
    780 CL         25.6470   28.7260   33.6440 Cl    128  CCL128     -0.0870
    781 HX         25.0920   26.4860   33.0450 H     128  CCL128      0.0806
    782 C          26.6630   49.5640   10.4270 C.3   129  CCL129      0.1805
    783 CL         24.9690   49.9210    9.9870 Cl    129  CCL129     -0.0870
    784 CL         27.3900   50.9360   11.3550 Cl    129  CCL129     -0.0870
    785 CL         27.6210   49.2100    8.9330 Cl    129  CCL129     -0.0870
    786 HX         26.6870   48.7310   11.1240 H     129  CCL129      0.0806
    787 C          39.1370    3.6780   -4.2430 C.3   130  CCL130      0.1805
    788 CL         40.7900    3.0850   -4.0080 Cl    130  CCL130     -0.0870
    789 CL         38.3290    3.7720   -2.7170 Cl    130  CCL130     -0.0870
    790 CL         38.2380    2.5960   -5.3890 Cl    130  CCL130     -0.0870
    791 HX         39.1420    4.6760   -4.6720 H     130  CCL130      0.0806
    792 C          23.5200    2.6360   22.8750 C.3   131  CCL131      0.1805
    793 CL         23.2900    4.4640   22.8740 Cl    131  CCL131     -0.0870
    794 CL         23.8670    2.0580   21.3200 Cl    131  CCL131     -0.0870
    795 CL         22.0220    1.8080   23.3980 Cl    131  CCL131     -0.0870
    796 HX         24.2710    2.3290   23.5970 H     131  CCL131      0.0806
    797 C          10.7710   25.4440   17.0920 C.3   132  CCL132      0.1805
    798 CL         12.2170   25.5340   15.9760 Cl    132  CCL132     -0.0870
    799 CL          9.2950   24.9900   16.1750 Cl    132  CCL132     -0.0870
    800 CL         10.5740   26.8120   18.0930 Cl    132  CCL132     -0.0870
    801 HX         11.0330   24.6390   17.7720 H     132  CCL132      0.0806
    802 C           7.5840    5.1490   52.4590 C.3   133  CCL133      0.1805
    803 CL          7.8880    6.3720   51.1140 Cl    133  CCL133     -0.0870
    804 CL          7.5370    3.5010   51.8800 Cl    133  CCL133     -0.0870
    805 CL          6.0730    5.5470   53.2980 Cl    133  CCL133     -0.0870
    806 HX          8.3770    5.2620   53.1920 H     133  CCL133      0.0806
    807 C          20.8850   15.0780    3.0620 C.3   134  CCL134      0.1805
    808 CL         21.8420   14.1910    1.8940 Cl    134  CCL134     -0.0870
    809 CL         19.1730   14.4790    3.0260 Cl    134  CCL134     -0.0870
    810 CL         21.0200   16.8550    2.8830 Cl    134  CCL134     -0.0870
    811 HX         21.2550   14.8370    4.0540 H     134  CCL134      0.0806
    812 C          34.3010   38.1430   -0.6070 C.3   135  CCL135      0.1805
    813 CL         32.8740   37.4220   -0.1910 Cl    135  CCL135     -0.0870
    814 CL         35.5480   36.9280   -0.2160 Cl    135  CCL135     -0.0870
    815 CL         34.4930   39.6880    0.3060 Cl    135  CCL135     -0.0870
    816 HX         34.3330   38.2320   -1.6890 H     135  CCL135      0.0806
    817 C          40.6270    3.6470   36.6400 C.3   136  CCL136      0.1805
    818 CL         40.5480    4.2040   38.3270 Cl    136  CCL136     -0.0870
    819 CL         40.0370    4.8190   35.4600 Cl    136  CCL136     -0.0870
    820 CL         39.7180    2.1400   36.4280 Cl    136  CCL136     -0.0870
    821 HX         41.6860    3.4300   36.5380 H     136  CCL136      0.0806
    822 C          25.5060   -5.5490   28.7850 C.3   137  CCL137      0.1805
    823 CL         25.8630   -4.0190   29.6390 Cl    137  CCL137     -0.0870
    824 CL         24.6810   -5.4240   27.2770 Cl    137  CCL137     -0.0870
    825 CL         24.6760   -6.6290   29.9690 Cl    137  CCL137     -0.0870
    826 HX         26.4600   -6.0610   28.6940 H     137  CCL137      0.0806
    827 C          49.3430    2.0910   29.1140 C.3   138  CCL138      0.1805
    828 CL         48.3020    1.1840   30.1350 Cl    138  CCL138     -0.0870
    829 CL         49.5200    1.1640   27.6370 Cl    138  CCL138     -0.0870
    830 CL         50.9400    2.4580   29.8440 Cl    138  CCL138     -0.0870
    831 HX         48.8060    3.0250   28.9730 H     138  CCL138      0.0806
    832 C          36.8070   47.7390   25.9120 C.3   139  CCL139      0.1805
    833 CL         37.7680   48.4280   27.2850 Cl    139  CCL139     -0.0870
    834 CL         35.1410   47.6770   26.2600 Cl    139  CCL139     -0.0870
    835 CL         37.2730   46.1180   25.4220 Cl    139  CCL139     -0.0870
    836 HX         36.9780   48.4400   25.1000 H     139  CCL139      0.0806
    837 C          33.2430   42.6290   -0.5130 C.3   140  CCL140      0.1805
    838 CL         31.7930   41.7580    0.0630 Cl    140  CCL140     -0.0870
    839 CL         34.1730   43.3890    0.7090 Cl    140  CCL140     -0.0870
    840 CL         32.8970   43.8020   -1.7780 Cl    140  CCL140     -0.0870
    841 HX         33.8890   41.9120   -1.0100 H     140  CCL140      0.0806
    842 C          30.3680   34.2800   23.7200 C.3   141  CCL141      0.1805
    843 CL         29.8210   35.0630   25.1590 Cl    141  CCL141     -0.0870
    844 CL         30.5700   35.5220   22.5160 Cl    141  CCL141     -0.0870
    845 CL         29.2520   33.1240   22.9840 Cl    141  CCL141     -0.0870
    846 HX         31.3350   33.8080   23.8620 H     141  CCL141      0.0806
    847 C          19.2940   13.8590   38.1530 C.3   142  CCL142      0.1805
    848 CL         19.1110   12.1370   38.7660 Cl    142  CCL142     -0.0870
    849 CL         18.4530   14.9580   39.2910 Cl    142  CCL142     -0.0870
    850 CL         18.5230   13.9780   36.6230 Cl    142  CCL142     -0.0870
    851 HX         20.3460   14.0980   38.0290 H     142  CCL142      0.0806
    852 C           0.5960   32.5460   40.2940 C.3   143  CCL143      0.1805
    853 CL          1.6690   31.3660   39.6180 Cl    143  CCL143     -0.0870
    854 CL          0.0070   32.0770   41.9040 Cl    143  CCL143     -0.0870
    855 CL         -0.7860   32.7940   39.2200 Cl    143  CCL143     -0.0870
    856 HX          1.0410   33.5010   40.5590 H     143  CCL143      0.0806
    857 C          44.5840   20.2880   29.7320 C.3   144  CCL144      0.1805
    858 CL         42.9910   19.6000   29.1290 Cl    144  CCL144     -0.0870
    859 CL         45.9020   19.2140   29.7520 Cl    144  CCL144     -0.0870
    860 CL         44.4180   21.2100   31.2010 Cl    144  CCL144     -0.0870
    861 HX         44.8600   20.9970   28.9560 H     144  CCL144      0.0806
    862 C           9.6520   35.5540   16.7210 C.3   145  CCL145      0.1805
    863 CL          8.4130   36.4790   17.6040 Cl    145  CCL145     -0.0870
    864 CL         11.1500   36.2700   17.0630 Cl    145  CCL145     -0.0870
    865 CL          9.3260   35.3260   14.9880 Cl    145  CCL145     -0.0870
    866 HX          9.6560   34.5670   17.1740 H     145  CCL145      0.0806
    867 C          27.8870   30.1850    4.1360 C.3   146  CCL146      0.1805
    868 CL         28.4890   29.1970    2.8370 Cl    146  CCL146     -0.0870
    869 CL         26.1010   30.2990    4.1440 Cl    146  CCL146     -0.0870
    870 CL         28.6520   31.7350    3.9120 Cl    146  CCL146     -0.0870
    871 HX         28.2170   29.7400    5.0690 H     146  CCL146      0.0806
    872 C          25.4180   36.9920   11.1930 C.3   147  CCL147      0.1805
    873 CL         23.6940   36.7180   11.4130 Cl    147  CCL147     -0.0870
    874 CL         25.8020   36.5570    9.5370 Cl    147  CCL147     -0.0870
    875 CL         26.2400   35.9780   12.4310 Cl    147  CCL147     -0.0870
    876 HX         25.5940   38.0630   11.2310 H     147  CCL147      0.0806
    877 C          30.8730   44.6050    6.0880 C.3   148  CCL148      0.1805
    878 CL         32.5700   45.0740    5.8960 Cl    148  CCL148     -0.0870
    879 CL         30.7450   43.1290    6.9340 Cl    148  CCL148     -0.0870
    880 CL         30.0880   44.5120    4.4870 Cl    148  CCL148     -0.0870
    881 HX         30.3230   45.3880    6.6000 H     148  CCL148      0.0806
    882 C          18.2840   -1.2970   -1.4410 C.3   149  CCL149      0.1805
    883 CL         19.0080   -2.1560   -2.8000 Cl    149  CCL149     -0.0870
    884 CL         18.9840   -1.9720    0.0470 Cl    149  CCL149     -0.0870
    885 CL         16.5410   -1.6900   -1.3280 Cl    149  CCL149     -0.0870
    886 HX         18.3170   -0.2280   -1.6290 H     149  CCL149      0.0806
    887 C          -2.5650   15.6280   33.0270 C.3   150  CCL150      0.1805
    888 CL         -3.4100   14.1630   33.3190 Cl    150  CCL150     -0.0870
    889 CL         -1.0970   15.7740   34.0020 Cl    150  CCL150     -0.0870
    890 CL         -3.6880   16.8990   33.2470 Cl    150  CCL150     -0.0870
    891 HX         -2.1970   15.7180   32.0090 H     150  CCL150      0.0806
    892 C          42.5140   13.3950   38.5990 C.3   151  CCL151      0.1805
    893 CL         41.3270   13.3400   39.9340 Cl    151  CCL151     -0.0870
    894 CL         42.3070   14.8970   37.7190 Cl    151  CCL151     -0.0870
    895 CL         42.6870   11.9580   37.5930 Cl    151  CCL151     -0.0870
    896 HX         43.5020   13.5240   39.0310 H     151  CCL151      0.0806
    897 C           5.3480    6.3480   18.1600 C.3   152  CCL152      0.1805
    898 CL          4.1080    6.6340   16.9250 Cl    152  CCL152     -0.0870
    899 CL          5.4900    7.7540   19.1200 Cl    152  CCL152     -0.0870
    900 CL          6.8800    6.0170   17.4750 Cl    152  CCL152     -0.0870
    901 HX          5.0190    5.4640   18.6970 H     152  CCL152      0.0806
    902 C          15.2390   11.3450   27.5930 C.3   153  CCL153      0.1805
    903 CL         15.1420   12.8220   28.5780 Cl    153  CCL153     -0.0870
    904 CL         16.9690   11.0800   27.2660 Cl    153  CCL153     -0.0870
    905 CL         14.2690   11.3640   26.0880 Cl    153  CCL153     -0.0870
    906 HX         14.8130   10.6120   28.2710 H     153  CCL153      0.0806
    907 C          15.1130   41.6610   14.6290 C.3   154  CCL154      0.1805
    908 CL         14.5450   42.3640   16.0870 Cl    154  CCL154     -0.0870
    909 CL         16.6950   40.9080   14.8600 Cl    154  CCL154     -0.0870
    910 CL         15.1210   43.0430   13.4140 Cl    154  CCL154     -0.0870
    911 HX         14.4070   40.8910   14.3330 H     154  CCL154      0.0806
    912 C          41.3320    1.0650   43.1060 C.3   155  CCL155      0.1805
    913 CL         41.5650    1.9350   44.6340 Cl    155  CCL155     -0.0870
    914 CL         41.3800   -0.6790   43.4360 Cl    155  CCL155     -0.0870
    915 CL         42.5590    1.4350   41.8690 Cl    155  CCL155     -0.0870
    916 HX         40.4280    1.4340   42.6300 H     155  CCL155      0.0806
    917 C          25.5060   -0.2470   18.4740 C.3   156  CCL156      0.1805
    918 CL         27.2340   -0.3390   18.7280 Cl    156  CCL156     -0.0870
    919 CL         24.7550   -1.8210   18.3830 Cl    156  CCL156     -0.0870
    920 CL         25.1660    0.7450   17.1240 Cl    156  CCL156     -0.0870
    921 HX         25.0230    0.2950   19.2810 H     156  CCL156      0.0806
    922 C          14.5530   -6.8750   24.6980 C.3   157  CCL157      0.1805
    923 CL         14.2650   -5.8280   26.0760 Cl    157  CCL157     -0.0870
    924 CL         13.1660   -7.9750   24.6290 Cl    157  CCL157     -0.0870
    925 CL         16.0520   -7.7780   24.7680 Cl    157  CCL157     -0.0870
    926 HX         14.5100   -6.2950   23.7810 H     157  CCL157      0.0806
    927 C          34.3850   36.0840   24.1270 C.3   158  CCL158      0.1805
    928 CL         36.1990   36.1960   24.4220 Cl    158  CCL158     -0.0870
    929 CL         33.4480   35.9290   25.5980 Cl    158  CCL158     -0.0870
    930 CL         34.0170   34.7110   23.0210 Cl    158  CCL158     -0.0870
    931 HX         34.1230   36.9690   23.5550 H     158  CCL158      0.0806
    932 C          -8.4070   33.3670   30.1000 C.3   159  CCL159      0.1805
    933 CL         -9.8110   34.3750   29.9360 Cl    159  CCL159     -0.0870
    934 CL         -8.8530   31.6480   30.3260 Cl    159  CCL159     -0.0870
    935 CL         -7.4830   33.8100   31.5450 Cl    159  CCL159     -0.0870
    936 HX         -7.8310   33.5000   29.1890 H     159  CCL159      0.0806
    937 C           3.2490   32.6900    6.2520 C.3   160  CCL160      0.1805
    938 CL          3.2650   31.4180    7.5250 Cl    160  CCL160     -0.0870
    939 CL          2.2940   32.1810    4.8790 Cl    160  CCL160     -0.0870
    940 CL          4.8870   33.0840    5.7090 Cl    160  CCL160     -0.0870
    941 HX          2.7840   33.5910    6.6410 H     160  CCL160      0.0806
    942 C          -2.6170   24.0630   20.6510 C.3   161  CCL161      0.1805
    943 CL         -3.5690   25.1020   21.7470 Cl    161  CCL161     -0.0870
    944 CL         -2.6310   22.3470   21.1280 Cl    161  CCL161     -0.0870
    945 CL         -1.0570   24.7270   20.4790 Cl    161  CCL161     -0.0870
    946 HX         -3.1380   24.1840   19.7060 H     161  CCL161      0.0806
    947 C          -1.2040   20.5130   45.4790 C.3   162  CCL162      0.1805
    948 CL         -0.0540   20.7890   46.7970 Cl    162  CCL162     -0.0870
    949 CL         -2.6730   21.4020   45.9700 Cl    162  CCL162     -0.0870
    950 CL         -1.5010   18.8600   45.3360 Cl    162  CCL162     -0.0870
    951 HX         -0.8420   20.9510   44.5540 H     162  CCL162      0.0806
    952 C          32.3380   27.1880    3.0760 C.3   163  CCL163      0.1805
    953 CL         32.0380   28.7170    3.9650 Cl    163  CCL163     -0.0870
    954 CL         32.3530   25.7050    4.0590 Cl    163  CCL163     -0.0870
    955 CL         33.7950   27.1910    2.1050 Cl    163  CCL163     -0.0870
    956 HX         31.5700   27.1490    2.3100 H     163  CCL163      0.0806
    957 C          16.7050   18.5950   31.7690 C.3   164  CCL164      0.1805
    958 CL         17.0310   19.3560   30.2920 Cl    164  CCL164     -0.0870
    959 CL         18.2700   18.3980   32.6660 Cl    164  CCL164     -0.0870
    960 CL         15.7940   17.0680   31.6070 Cl    164  CCL164     -0.0870
    961 HX         16.0770   19.3240   32.2710 H     164  CCL164      0.0806
    962 C          25.0220   24.6980    8.9330 C.3   165  CCL165      0.1805
    963 CL         25.8100   25.2620   10.4300 Cl    165  CCL165     -0.0870
    964 CL         24.2280   23.1220    9.1500 Cl    165  CCL165     -0.0870
    965 CL         26.2000   24.6230    7.6460 Cl    165  CCL165     -0.0870
    966 HX         24.2800   25.4390    8.6550 H     165  CCL165      0.0806
    967 C           9.8520   21.6960    6.4930 C.3   166  CCL166      0.1805
    968 CL          9.1650   23.4000    6.7700 Cl    166  CCL166     -0.0870
    969 CL          9.4340   20.9650    4.9320 Cl    166  CCL166     -0.0870
    970 CL          9.3520   20.7830    7.8780 Cl    166  CCL166     -0.0870
    971 HX         10.9310   21.8040    6.5480 H     166  CCL166      0.0806
    972 C          33.4840   13.0130   42.1590 C.3   167  CCL167      0.1805
    973 CL         35.0350   12.4470   41.5530 Cl    167  CCL167     -0.0870
    974 CL         32.1620   12.1250   41.4880 Cl    167  CCL167     -0.0870
    975 CL         33.1380   14.7160   42.0310 Cl    167  CCL167     -0.0870
    976 HX         33.4010   12.8070   43.2220 H     167  CCL167      0.0806
    977 C          18.6310    6.7370    0.7660 C.3   168  CCL168      0.1805
    978 CL         18.9690    7.2930    2.4080 Cl    168  CCL168     -0.0870
    979 CL         16.9670    6.2550    0.6530 Cl    168  CCL168     -0.0870
    980 CL         19.6620    5.3250    0.5710 Cl    168  CCL168     -0.0870
    981 HX         18.8480    7.4880    0.0130 H     168  CCL168      0.0806
    982 C          22.7490   15.7410   31.3550 C.3   169  CCL169      0.1805
    983 CL         21.6210   16.8720   32.0620 Cl    169  CCL169     -0.0870
    984 CL         23.2380   16.1610   29.7360 Cl    169  CCL169     -0.0870
    985 CL         22.0980   14.1090   31.2910 Cl    169  CCL169     -0.0870
    986 HX         23.6800   15.7730   31.9140 H     169  CCL169      0.0806
    987 C          46.6230    9.5880   -1.9030 C.3   170  CCL170      0.1805
    988 CL         46.5530   11.1140   -2.7720 Cl    170  CCL170     -0.0870
    989 CL         48.2600    9.3440   -1.1860 Cl    170  CCL170     -0.0870
    990 CL         46.3140    8.1890   -2.9790 Cl    170  CCL170     -0.0870
    991 HX         45.8730    9.7030   -1.1250 H     170  CCL170      0.0806
    992 C          27.8420   44.2280   29.6100 C.3   171  CCL171      0.1805
    993 CL         29.5600   44.1260   30.3340 Cl    171  CCL171     -0.0870
    994 CL         26.7140   43.9830   30.9750 Cl    171  CCL171     -0.0870
    995 CL         27.6120   42.8940   28.4200 Cl    171  CCL171     -0.0870
    996 HX         27.5510   45.1760   29.1670 H     171  CCL171      0.0806
    997 C          16.1600   -3.9200   41.7590 C.3   172  CCL172      0.1805
    998 CL         17.2800   -2.6590   41.3740 Cl    172  CCL172     -0.0870
    999 CL         15.3090   -3.4490   43.2520 Cl    172  CCL172     -0.0870
   1000 CL         16.9160   -5.4760   41.9680 Cl    172  CCL172     -0.0870
   1001 HX         15.4120   -4.0090   40.9770 H     172  CCL172      0.0806
   1002 C          29.9370   10.0700   17.4570 C.3   173  CCL173      0.1805
   1003 CL         29.7870   10.6900   19.1010 Cl    173  CCL173     -0.0870
   1004 CL         31.1710   10.8610   16.4830 Cl    173  CCL173     -0.0870
   1005 CL         28.3530   10.3120   16.6310 Cl    173  CCL173     -0.0870
   1006 HX         30.1150    8.9990   17.4710 H     173  CCL173      0.0806
   1007 C          16.4530    3.1790   23.4640 C.3   174  CCL174      0.1805
   1008 CL         15.7290    4.6600   24.0580 Cl    174  CCL174     -0.0870
   1009 CL         15.9820    1.7410   24.2990 Cl    174  CCL174     -0.0870
   1010 CL         18.2310    3.3440   23.2460 Cl    174  CCL174     -0.0870
   1011 HX         16.1510    3.1230   22.4230 H     174  CCL174      0.0806
   1012 C          15.4760   -6.1220   38.0390 C.3   175  CCL175      0.1805
   1013 CL         16.4000   -7.6040   38.0290 Cl    175  CCL175     -0.0870
   1014 CL         14.6750   -5.9490   36.5050 Cl    175  CCL175     -0.0870
   1015 CL         16.4660   -4.6860   38.4700 Cl    175  CCL175     -0.0870
   1016 HX         14.7970   -6.2630   38.8750 H     175  CCL175      0.0806
   1017 C          21.8930   30.0850    8.9540 C.3   176  CCL176      0.1805
   1018 CL         22.0760   28.4340    8.2960 Cl    176  CCL176     -0.0870
   1019 CL         20.6500   30.0910   10.2390 Cl    176  CCL176     -0.0870
   1020 CL         21.5880   31.4080    7.7980 Cl    176  CCL176     -0.0870
   1021 HX         22.8670   30.3430    9.3590 H     176  CCL176      0.0806
   1022 C          15.2320   35.4700   52.5940 C.3   177  CCL177      0.1805
   1023 CL         15.4240   33.7950   52.1240 Cl    177  CCL177     -0.0870
   1024 CL         15.1510   35.5890   54.3420 Cl    177  CCL177     -0.0870
   1025 CL         13.8650   36.1900   51.8490 Cl    177  CCL177     -0.0870
   1026 HX         16.1110   35.9830   52.2150 H     177  CCL177      0.0806
   1027 C           4.8240   22.6480   51.0290 C.3   178  CCL178      0.1805
   1028 CL          4.6190   23.9100   52.2060 Cl    178  CCL178     -0.0870
   1029 CL          6.4660   22.7230   50.2600 Cl    178  CCL178     -0.0870
   1030 CL          3.4660   22.6340   49.9510 Cl    178  CCL178     -0.0870
   1031 HX          4.7460   21.8150   51.7220 H     178  CCL178      0.0806
   1032 C          39.8300   23.0640   34.5960 C.3   179  CCL179      0.1805
   1033 CL         40.6050   24.5060   35.2660 Cl    179  CCL179     -0.0870
   1034 CL         40.8020   22.2240   33.5010 Cl    179  CCL179     -0.0870
   1035 CL         38.2170   23.5770   33.9030 Cl    179  CCL179     -0.0870
   1036 HX         39.7270   22.4420   35.4790 H     179  CCL179      0.0806
   1037 C          25.1430    4.0220    9.1570 C.3   180  CCL180      0.1805
   1038 CL         26.1090    5.4190    9.6920 Cl    180  CCL180     -0.0870
   1039 CL         24.9730    2.7200   10.3730 Cl    180  CCL180     -0.0870
   1040 CL         25.5870    3.3110    7.6280 Cl    180  CCL180     -0.0870
   1041 HX         24.1460    4.4370    9.0440 H     180  CCL180      0.0806
   1042 C          -7.0520   26.0400    9.7070 C.3   181  CCL181      0.1805
   1043 CL         -8.6180   26.4320    8.9680 Cl    181  CCL181     -0.0870
   1044 CL         -6.9700   24.4330   10.4770 Cl    181  CCL181     -0.0870
   1045 CL         -6.6200   27.2870   10.8960 Cl    181  CCL181     -0.0870
   1046 HX         -6.3160   26.0870    8.9110 H     181  CCL181      0.0806
   1047 C          15.3470   29.0030   43.0080 C.3   182  CCL182      0.1805
   1048 CL         13.8820   29.1770   42.0450 Cl    182  CCL182     -0.0870
   1049 CL         15.3960   30.2030   44.2960 Cl    182  CCL182     -0.0870
   1050 CL         16.7000   29.2160   41.9920 Cl    182  CCL182     -0.0870
   1051 HX         15.3880   28.0190   43.4650 H     182  CCL182      0.0806
   1052 C           2.9220   35.6210   30.6630 C.3   183  CCL183      0.1805
   1053 CL          4.5540   35.4940   31.3570 Cl    183  CCL183     -0.0870
   1054 CL          2.6410   34.4870   29.2830 Cl    183  CCL183     -0.0870
   1055 CL          2.6180   37.2740   30.1950 Cl    183  CCL183     -0.0870
   1056 HX          2.1890   35.4660   31.4500 H     183  CCL183      0.0806
   1057 C           6.1160   17.3960   31.4540 C.3   184  CCL184      0.1805
   1058 CL          6.7410   16.7670   32.9130 Cl    184  CCL184     -0.0870
   1059 CL          4.7520   16.4340   30.8710 Cl    184  CCL184     -0.0870
   1060 CL          7.2730   17.5660   30.1510 Cl    184  CCL184     -0.0870
   1061 HX          5.6670   18.3750   31.5940 H     184  CCL184      0.0806
   1062 C          31.2080    4.0910   29.8150 C.3   185  CCL185      0.1805
   1063 CL         32.4150    3.0100   29.1710 Cl    185  CCL185     -0.0870
   1064 CL         30.8040    3.7280   31.4290 Cl    185  CCL185     -0.0870
   1065 CL         29.7540    3.9360   28.7370 Cl    185  CCL185     -0.0870
   1066 HX         31.5080    5.1340   29.7850 H     185  CCL185      0.0806
   1067 C          45.5720   14.7790    1.9640 C.3   186  CCL186      0.1805
   1068 CL         46.8500   14.6000    3.1740 Cl    186  CCL186     -0.0870
   1069 CL         45.6730   13.6270    0.6260 Cl    186  CCL186     -0.0870
   1070 CL         45.5140   16.4250    1.3870 Cl    186  CCL186     -0.0870
   1071 HX         44.6740   14.5420    2.5250 H     186  CCL186      0.0806
   1072 C          15.6730   33.6810   18.3460 C.3   187  CCL187      0.1805
   1073 CL         16.1780   31.9530   18.6720 Cl    187  CCL187     -0.0870
   1074 CL         16.6500   34.7000   19.3910 Cl    187  CCL187     -0.0870
   1075 CL         13.9470   33.8170   18.7460 Cl    187  CCL187     -0.0870
   1076 HX         15.8620   33.8350   17.2880 H     187  CCL187      0.0806
   1077 C          47.4200    1.9930   23.8180 C.3   188  CCL188      0.1805
   1078 CL         46.3810    2.1430   22.3900 Cl    188  CCL188     -0.0870
   1079 CL         48.9660    1.2140   23.4070 Cl    188  CCL188     -0.0870
   1080 CL         46.5590    1.0200   24.9790 Cl    188  CCL188     -0.0870
   1081 HX         47.5240    3.0230   24.1470 H     188  CCL188      0.0806
   1082 C          45.3450   14.9730   42.1020 C.3   189  CCL189      0.1805
   1083 CL         45.3900   13.2860   42.4950 Cl    189  CCL189     -0.0870
   1084 CL         44.1080   15.3640   40.9200 Cl    189  CCL189     -0.0870
   1085 CL         46.9090   15.6980   41.6160 Cl    189  CCL189     -0.0870
   1086 HX         45.0400   15.5430   42.9750 H     189  CCL189      0.0806
   1087 C          34.9630   43.8690   21.9020 C.3   190  CCL190      0.1805
   1088 CL         34.3500   43.9520   20.2350 Cl    190  CCL190     -0.0870
   1089 CL         35.2900   45.4340   22.6120 Cl    190  CCL190     -0.0870
   1090 CL         36.4750   42.9600   21.8640 Cl    190  CCL190     -0.0870
   1091 HX         34.1360   43.5140   22.5110 H     190  CCL190      0.0806
   1092 C          22.1290   25.7220   43.1710 C.3   191  CCL191      0.1805
   1093 CL         22.4640   25.4740   44.9310 Cl    191  CCL191     -0.0870
   1094 CL         21.6170   24.2370   42.2950 Cl    191  CCL191     -0.0870
   1095 CL         23.4980   26.5530   42.3930 Cl    191  CCL191     -0.0870
   1096 HX         21.2860   26.4070   43.1710 H     191  CCL191      0.0806
   1097 C          33.8340    7.2660    3.3690 C.3   192  CCL192      0.1805
   1098 CL         33.5220    7.4510    1.5500 Cl    192  CCL192     -0.0870
   1099 CL         32.9610    5.8180    4.0070 Cl    192  CCL192     -0.0870
   1100 CL         33.3280    8.7830    4.1790 Cl    192  CCL192     -0.0870
   1101 HX         34.9030    7.1600    3.5290 H     192  CCL192      0.0806
   1102 C           0.3120   10.6020   16.9560 C.3   193  CCL193      0.1805
   1103 CL          1.1620    9.0410   16.5740 Cl    193  CCL193     -0.0870
   1104 CL          0.5160   11.8820   15.7510 Cl    193  CCL193     -0.0870
   1105 CL          0.9650   11.2190   18.4490 Cl    193  CCL193     -0.0870
   1106 HX         -0.7610   10.4400   17.0020 H     193  CCL193      0.0806
   1107 C           8.4080   24.5620   40.2100 C.3   194  CCL194      0.1805
   1108 CL          6.8090   24.1640   39.7050 Cl    194  CCL194     -0.0870
   1109 CL          8.4480   25.9590   41.2900 Cl    194  CCL194     -0.0870
   1110 CL          9.5540   24.7230   38.8170 Cl    194  CCL194     -0.0870
   1111 HX          8.6650   23.6590   40.7550 H     194  CCL194      0.0806
   1112 C          19.5490    5.7900    6.6330 C.3   195  CCL195      0.1805
   1113 CL         18.4070    7.0200    6.1170 Cl    195  CCL195     -0.0870
   1114 CL         21.1400    6.0960    6.0390 Cl    195  CCL195     -0.0870
   1115 CL         18.9330    4.2280    6.2520 Cl    195  CCL195     -0.0870
   1116 HX         19.6590    5.8950    7.7080 H     195  CCL195      0.0806
   1117 C          18.1770   -0.7760   11.9230 C.3   196  CCL196      0.1805
   1118 CL         19.3630   -0.1040   12.9870 Cl    196  CCL196     -0.0870
   1119 CL         16.7370   -0.1090   12.5740 Cl    196  CCL196     -0.0870
   1120 CL         18.2410   -2.4610   12.1090 Cl    196  CCL196     -0.0870
   1121 HX         18.2750   -0.5040   10.8760 H     196  CCL196      0.0806
   1122 C           2.8670   24.6970   46.6800 C.3   197  CCL197      0.1805
   1123 CL          1.9710   23.5390   45.7290 Cl    197  CCL197     -0.0870
   1124 CL          1.8000   25.4960   47.8250 Cl    197  CCL197     -0.0870
   1125 CL          3.8650   25.7840   45.8360 Cl    197  CCL197     -0.0870
   1126 HX          3.5270   24.1510   47.3470 H     197  CCL197      0.0806
   1127 C          28.5210   31.6360   36.8220 C.3   198  CCL198      0.1805
   1128 CL         30.2830   31.7780   36.7040 Cl    198  CCL198     -0.0870
   1129 CL         27.7520   32.7360   35.5750 Cl    198  CCL198     -0.0870
   1130 CL         28.0350   32.2200   38.3960 Cl    198  CCL198     -0.0870
   1131 HX         28.1820   30.6420   36.5470 H     198  CCL198      0.0806
   1132 C          20.6580   28.8560   39.7780 C.3   199  CCL199      0.1805
   1133 CL         19.8280   29.2440   38.1640 Cl    199  CCL199     -0.0870
   1134 CL         22.3740   28.5180   39.8000 Cl    199  CCL199     -0.0870
   1135 CL         19.7990   27.5330   40.5680 Cl    199  CCL199     -0.0870
   1136 HX         20.5270   29.7940   40.3090 H     199  CCL199      0.0806
   1137 C          -3.7610   22.4180   40.8220 C.3   200  CCL200      0.1805
   1138 CL         -2.5690   21.5730   41.7640 Cl    200  CCL200     -0.0870
   1139 CL         -4.6120   23.6110   41.7660 Cl    200  CCL200     -0.0870
   1140 CL         -4.9330   21.2820   39.9400 Cl    200  CCL200     -0.0870
   1141 HX         -3.1810   22.9980   40.1100 H     200  CCL200      0.0806
   1142 C          29.0530   43.9140   44.3820 C.3   201  CCL201      0.1805
   1143 CL         28.3260   42.3660   43.9600 Cl    201  CCL201     -0.0870
   1144 CL         30.2230   44.3630   43.1700 Cl    201  CCL201     -0.0870
   1145 CL         29.7670   43.9420   45.9780 Cl    201  CCL201     -0.0870
   1146 HX         28.3540   44.7450   44.3540 H     201  CCL201      0.0806
   1147 C          34.2530   45.2250   29.3340 C.3   202  CCL202      0.1805
   1148 CL         35.8740   44.8870   28.5690 Cl    202  CCL202     -0.0870
   1149 CL         33.1760   46.1570   28.2720 Cl    202  CCL202     -0.0870
   1150 CL         34.3350   46.0020   30.8540 Cl    202  CCL202     -0.0870
   1151 HX         33.8820   44.2250   29.5380 H     202  CCL202      0.0806
   1152 C          18.6940    6.4890   33.9790 C.3   203  CCL203      0.1805
   1153 CL         18.0330    4.8330   34.0090 Cl    203  CCL203     -0.0870
   1154 CL         18.3890    7.3460   35.4390 Cl    203  CCL203     -0.0870
   1155 CL         18.2180    7.4510   32.5830 Cl    203  CCL203     -0.0870
   1156 HX         19.7730    6.3750   33.9310 H     203  CCL203      0.0806
   1157 C          -2.6640   24.1240   12.8800 C.3   204  CCL204      0.1805
   1158 CL         -1.9560   23.6940   11.2880 Cl    204  CCL204     -0.0870
   1159 CL         -4.3850   24.4020   12.8320 Cl    204  CCL204     -0.0870
   1160 CL         -1.8590   25.4460   13.6390 Cl    204  CCL204     -0.0870
   1161 HX         -2.4770   23.3340   13.6010 H     204  CCL204      0.0806
   1162 C          41.4440   31.6680   40.2620 C.3   205  CCL205      0.1805
   1163 CL         40.7890   30.4820   39.1190 Cl    205  CCL205     -0.0870
   1164 CL         41.6720   31.0150   41.8940 Cl    205  CCL205     -0.0870
   1165 CL         40.4850   33.1450   40.3440 Cl    205  CCL205     -0.0870
   1166 HX         42.4190   32.0150   39.9340 H     205  CCL205      0.0806
   1167 C          43.7460    1.5140   32.9310 C.3   206  CCL206      0.1805
   1168 CL         42.2670    1.4380   33.8200 Cl    206  CCL206     -0.0870
   1169 CL         45.1680    0.8740   33.8560 Cl    206  CCL206     -0.0870
   1170 CL         44.2530    3.1930   32.4770 Cl    206  CCL206     -0.0870
   1171 HX         43.6670    1.0300   31.9620 H     206  CCL206      0.0806
   1172 C          11.6790    5.7760    9.4940 C.3   207  CCL207      0.1805
   1173 CL         11.7060    4.0350    9.5730 Cl    207  CCL207     -0.0870
   1174 CL         10.6770    6.2870    8.1480 Cl    207  CCL207     -0.0870
   1175 CL         13.3420    6.4220    9.3490 Cl    207  CCL207     -0.0870
   1176 HX         11.2330    6.1650   10.4040 H     207  CCL207      0.0806
   1177 C          27.0580   18.3710   27.7040 C.3   208  CCL208      0.1805
   1178 CL         26.0110   19.8500   27.5040 Cl    208  CCL208     -0.0870
   1179 CL         26.4300   16.9190   27.0540 Cl    208  CCL208     -0.0870
   1180 CL         27.3980   18.2310   29.4310 Cl    208  CCL208     -0.0870
   1181 HX         27.9760   18.6060   27.1740 H     208  CCL208      0.0806
   1182 C          27.7780   31.7660   14.7340 C.3   209  CCL209      0.1805
   1183 CL         27.6370   31.4470   16.4960 Cl    209  CCL209     -0.0870
   1184 CL         29.4630   31.7750   14.1410 Cl    209  CCL209     -0.0870
   1185 CL         27.2410   33.4100   14.4570 Cl    209  CCL209     -0.0870
   1186 HX         27.2660   31.0080   14.1500 H     209  CCL209      0.0806
   1187 C          17.4020   -4.5330   27.7830 C.3   210  CCL210      0.1805
   1188 CL         17.9500   -3.4020   26.6130 Cl    210  CCL210     -0.0870
   1189 CL         18.0180   -4.1390   29.3230 Cl    210  CCL210     -0.0870
   1190 CL         17.8470   -6.1870   27.4310 Cl    210  CCL210     -0.0870
   1191 HX         16.3200   -4.4490   27.7290 H     210  CCL210      0.0806
   1192 C          27.8910   48.6350   21.8830 C.3   211  CCL211      0.1805
   1193 CL         27.7690   48.6170   20.1670 Cl    211  CCL211     -0.0870
   1194 CL         28.0860   50.2870   22.5120 Cl    211  CCL211     -0.0870
   1195 CL         29.1370   47.4120   22.3060 Cl    211  CCL211     -0.0870
   1196 HX         26.9330   48.3880   22.3300 H     211  CCL211      0.0806
   1197 C          12.2470   36.2060    6.8750 C.3   212  CCL212      0.1805
   1198 CL         12.1950   37.8510    7.3370 Cl    212  CCL212     -0.0870
   1199 CL         13.2620   35.3120    7.9310 Cl    212  CCL212     -0.0870
   1200 CL         12.6240   35.9520    5.1700 Cl    212  CCL212     -0.0870
   1201 HX         11.2110   35.9060    7.0050 H     212  CCL212      0.0806
   1202 C          25.6710   37.4800   34.5500 C.3   213  CCL213      0.1805
   1203 CL         24.9430   38.5590   35.6310 Cl    213  CCL213     -0.0870
   1204 CL         25.9250   38.0770   32.8870 Cl    213  CCL213     -0.0870
   1205 CL         24.7980   35.9960   34.6090 Cl    213  CCL213     -0.0870
   1206 HX         26.7010   37.2600   34.8150 H     213  CCL213      0.0806
   1207 C          10.3460   19.1810   45.9500 C.3   214  CCL214      0.1805
   1208 CL         10.8330   18.4320   47.4610 Cl    214  CCL214     -0.0870
   1209 CL         11.4140   20.5210   45.4950 Cl    214  CCL214     -0.0870
   1210 CL          8.6030   19.5090   45.9170 Cl    214  CCL214     -0.0870
   1211 HX         10.4710   18.4080   45.1980 H     214  CCL214      0.0806
   1212 C           4.5900   19.4710   46.4190 C.3   215  CCL215      0.1805
   1213 CL          5.1570   20.3430   47.8290 Cl    215  CCL215     -0.0870
   1214 CL          3.1740   20.1990   45.8270 Cl    215  CCL215     -0.0870
   1215 CL          4.4950   17.6870   46.6400 Cl    215  CCL215     -0.0870
   1216 HX          5.3800   19.6860   45.7060 H     215  CCL215      0.0806
   1217 C          37.4830   33.1820   36.4530 C.3   216  CCL216      0.1805
   1218 CL         38.4520   32.4790   37.6810 Cl    216  CCL216     -0.0870
   1219 CL         35.8130   33.2690   36.8960 Cl    216  CCL216     -0.0870
   1220 CL         37.6870   32.3400   34.9140 Cl    216  CCL216     -0.0870
   1221 HX         37.9150   34.1530   36.2270 H     216  CCL216      0.0806
   1222 C          20.8790    3.4650   46.5470 C.3   217  CCL217      0.1805
   1223 CL         19.2770    3.1090   47.2180 Cl    217  CCL217     -0.0870
   1224 CL         21.2970    2.4020   45.2050 Cl    217  CCL217     -0.0870
   1225 CL         22.0000    3.0690   47.8300 Cl    217  CCL217     -0.0870
   1226 HX         20.9060    4.5240   46.3100 H     217  CCL217      0.0806
   1227 C           3.5500   17.7400   42.1610 C.3   218  CCL218      0.1805
   1228 CL          5.0130   17.7390   43.0860 Cl    218  CCL218     -0.0870
   1229 CL          4.0070   18.5120   40.5960 Cl    218  CCL218     -0.0870
   1230 CL          2.2370   18.6490   42.9100 Cl    218  CCL218     -0.0870
   1231 HX          3.2850   16.7290   41.8650 H     218  CCL218      0.0806
   1232 C           4.8140    4.6320   26.7360 C.3   219  CCL219      0.1805
   1233 CL          5.6500    6.1010   26.5570 Cl    219  CCL219     -0.0870
   1234 CL          4.2970    4.2040   25.0600 Cl    219  CCL219     -0.0870
   1235 CL          3.3540    4.5980   27.8780 Cl    219  CCL219     -0.0870
   1236 HX          5.6260    3.9880   27.0600 H     219  CCL219      0.0806
   1237 C          18.7200   26.9810   45.9090 C.3   220  CCL220      0.1805
   1238 CL         20.2690   27.2200   46.6340 Cl    220  CCL220     -0.0870
   1239 CL         18.8250   27.1660   44.1390 Cl    220  CCL220     -0.0870
   1240 CL         17.4870   28.0520   46.5410 Cl    220  CCL220     -0.0870
   1241 HX         18.3860   25.9530   46.0160 H     220  CCL220      0.0806
   1242 C           5.1240   18.8240   26.8330 C.3   221  CCL221      0.1805
   1243 CL          5.2250   19.6000   28.3670 Cl    221  CCL221     -0.0870
   1244 CL          4.3220   17.2910   26.9600 Cl    221  CCL221     -0.0870
   1245 CL          6.7940   18.4000   26.2660 Cl    221  CCL221     -0.0870
   1246 HX          4.5640   19.4430   26.1380 H     221  CCL221      0.0806
   1247 C          11.6000    2.4260   21.2490 C.3   222  CCL222      0.1805
   1248 CL         12.5660    2.7820   19.8000 Cl    222  CCL222     -0.0870
   1249 CL         12.7310    2.3150   22.6240 Cl    222  CCL222     -0.0870
   1250 CL         10.5200    1.0100   21.0450 Cl    222  CCL222     -0.0870
   1251 HX         10.8670    3.2120   21.4050 H     222  CCL222      0.0806
   1252 C          -4.8790   23.7010   36.9900 C.3   223  CCL223      0.1805
   1253 CL         -5.9340   24.5260   38.1910 Cl    223  CCL223     -0.0870
   1254 CL         -3.1820   23.5960   37.4650 Cl    223  CCL223     -0.0870
   1255 CL         -4.9950   24.3710   35.3700 Cl    223  CCL223     -0.0870
   1256 HX         -5.2830   22.6980   36.8950 H     223  CCL223      0.0806
   1257 C          29.0880    8.7530   44.4270 C.3   224  CCL224      0.1805
   1258 CL         28.9760    7.1940   43.6100 Cl    224  CCL224     -0.0870
   1259 CL         30.0360    8.5580   45.8800 Cl    224  CCL224     -0.0870
   1260 CL         27.5150    9.3950   44.7820 Cl    224  CCL224     -0.0870
   1261 HX         29.4910    9.5440   43.8020 H     224  CCL224      0.0806
   1262 C          36.3020   14.2990   32.5280 C.3   225  CCL225      0.1805
   1263 CL         37.0170   13.9660   31.0010 Cl    225  CCL225     -0.0870
   1264 CL         34.6610   14.7980   32.3790 Cl    225  CCL225     -0.0870
   1265 CL         37.3080   15.4180   33.3790 Cl    225  CCL225     -0.0870
   1266 HX         36.2700   13.3800   33.1060 H     225  CCL225      0.0806
   1267 C           3.7900   29.1140   54.4710 C.3   226  CCL226      0.1805
   1268 CL          5.1130   30.2840   54.1220 Cl    226  CCL226     -0.0870
   1269 CL          3.8810   27.5940   53.5340 Cl    226  CCL226     -0.0870
   1270 CL          2.2880   29.8520   53.9130 Cl    226  CCL226     -0.0870
   1271 HX          3.6640   29.0310   55.5460 H     226  CCL226      0.0806
   1272 C           4.9120   18.8200   11.6890 C.3   227  CCL227      0.1805
   1273 CL          3.9370   17.4510   12.0530 Cl    227  CCL227     -0.0870
   1274 CL          3.9550   20.2410   11.5100 Cl    227  CCL227     -0.0870
   1275 CL          5.9300   18.6660   10.3160 Cl    227  CCL227     -0.0870
   1276 HX          5.6440   18.9500   12.4810 H     227  CCL227      0.0806
   1277 C           8.0690   25.3140   45.7550 C.3   228  CCL228      0.1805
   1278 CL          7.4560   24.9130   44.1680 Cl    228  CCL228     -0.0870
   1279 CL          7.3620   24.2340   46.8950 Cl    228  CCL228     -0.0870
   1280 CL          7.6470   26.9830   46.2620 Cl    228  CCL228     -0.0870
   1281 HX          9.1470   25.1880   45.7390 H     228  CCL228      0.0806
   1282 C          45.8760   16.9860   22.6200 C.3   229  CCL229      0.1805
   1283 CL         47.5740   16.6180   22.4940 Cl    229  CCL229     -0.0870
   1284 CL         45.4800   18.3490   21.6680 Cl    229  CCL229     -0.0870
   1285 CL         45.3350   17.2490   24.3210 Cl    229  CCL229     -0.0870
   1286 HX         45.3420   16.0970   22.2960 H     229  CCL229      0.0806
   1287 C           9.4470   36.6020   35.2450 C.3   230  CCL230      0.1805
   1288 CL          7.6940   36.3420   35.5900 Cl    230  CCL230     -0.0870
   1289 CL         10.1130   35.1660   34.5920 Cl    230  CCL230     -0.0870
   1290 CL         10.3140   37.1320   36.6260 Cl    230  CCL230     -0.0870
   1291 HX          9.5510   37.3560   34.4710 H     230  CCL230      0.0806
   1292 C          24.9260   33.5050    1.2360 C.3   231  CCL231      0.1805
   1293 CL         26.6630   33.4890    1.5550 Cl    231  CCL231     -0.0870
   1294 CL         24.1820   34.9910    1.6590 Cl    231  CCL231     -0.0870
   1295 CL         24.0170   32.1440    1.9360 Cl    231  CCL231     -0.0870
   1296 HX         24.8830   33.3240    0.1660 H     231  CCL231      0.0806
   1297 C          30.4990   25.6100    8.1940 C.3   232  CCL232      0.1805
   1298 CL         29.2820   25.1540    9.2840 Cl    232  CCL232     -0.0870
   1299 CL         31.1920   27.0820    8.6890 Cl    232  CCL232     -0.0870
   1300 CL         29.8870   25.7490    6.5680 Cl    232  CCL232     -0.0870
   1301 HX         31.2130   24.8010    8.3190 H     232  CCL232      0.0806
   1302 C          13.0180   14.8240   15.9050 C.3   233  CCL233      0.1805
   1303 CL         13.9750   14.9830   14.4670 Cl    233  CCL233     -0.0870
   1304 CL         11.7640   16.0540   15.7300 Cl    233  CCL233     -0.0870
   1305 CL         14.0080   15.1640   17.2770 Cl    233  CCL233     -0.0870
   1306 HX         12.5860   13.8280   15.8970 H     233  CCL233      0.0806
   1307 C         -11.3930   32.3810   12.8180 C.3   234  CCL234      0.1805
   1308 CL        -10.3110   31.0850   13.2360 Cl    234  CCL234     -0.0870
   1309 CL        -12.2390   33.0840   14.1510 Cl    234  CCL234     -0.0870
   1310 CL        -12.5020   31.9820   11.4960 Cl    234  CCL234     -0.0870
   1311 HX        -10.7030   33.1060   12.3970 H     234  CCL234      0.0806
   1312 C          30.0940    6.4870    0.4390 C.3   235  CCL235      0.1805
   1313 CL         28.8700    5.9990   -0.7920 Cl    235  CCL235     -0.0870
   1314 CL         29.9380    5.3280    1.7310 Cl    235  CCL235     -0.0870
   1315 CL         30.0890    8.1390    0.9490 Cl    235  CCL235     -0.0870
   1316 HX         31.0130    6.2260   -0.0780 H     235  CCL235      0.0806
   1317 C          37.9950   13.1630   26.6690 C.3   236  CCL236      0.1805
   1318 CL         39.2190   12.1780   27.3140 Cl    236  CCL236     -0.0870
   1319 CL         36.4770   12.7700   27.4950 Cl    236  CCL236     -0.0870
   1320 CL         37.7290   12.9450   24.8990 Cl    236  CCL236     -0.0870
   1321 HX         38.1700   14.2080   26.9080 H     236  CCL236      0.0806
   1322 C          30.4380   31.9670   47.9040 C.3   237  CCL237      0.1805
   1323 CL         29.9590   33.4960   47.3130 Cl    237  CCL237     -0.0870
   1324 CL         32.0380   31.4520   47.5040 Cl    237  CCL237     -0.0870
   1325 CL         29.3330   30.7080   47.4430 Cl    237  CCL237     -0.0870
   1326 HX         30.2560   31.9770   48.9750 H     237  CCL237      0.0806
   1327 C          -1.6680   15.7820   19.1950 C.3   238  CCL238      0.1805
   1328 CL         -1.1610   16.8910   20.4280 Cl    238  CCL238     -0.0870
   1329 CL         -2.7630   14.6070   19.9340 Cl    238  CCL238     -0.0870
   1330 CL         -0.2700   14.9370   18.5610 Cl    238  CCL238     -0.0870
   1331 HX         -2.1800   16.3560   18.4280 H     238  CCL238      0.0806
   1332 C          10.4940   13.0230   40.9830 C.3   239  CCL239      0.1805
   1333 CL         11.5330   14.3190   40.3780 Cl    239  CCL239     -0.0870
   1334 CL         11.2450   11.4680   41.1220 Cl    239  CCL239     -0.0870
   1335 CL          9.0270   12.9530   39.9770 Cl    239  CCL239     -0.0870
   1336 HX         10.0620   13.3450   41.9260 H     239  CCL239      0.0806
   1337 C          36.3380   24.0480   42.8550 C.3   240  CCL240      0.1805
   1338 CL         35.0770   24.6140   43.8760 Cl    240  CCL240     -0.0870
   1339 CL         37.4770   25.3150   42.4600 Cl    240  CCL240     -0.0870
   1340 CL         35.6080   23.5690   41.3090 Cl    240  CCL240     -0.0870
   1341 HX         36.9250   23.2160   43.2330 H     240  CCL240      0.0806
   1342 C          15.1440   -0.0930   42.6560 C.3   241  CCL241      0.1805
   1343 CL         16.5120    0.5540   43.4730 Cl    241  CCL241     -0.0870
   1344 CL         14.5170    1.1860   41.6210 Cl    241  CCL241     -0.0870
   1345 CL         13.9700   -0.7240   43.8590 Cl    241  CCL241     -0.0870
   1346 HX         15.4090   -0.9230   42.0080 H     241  CCL241      0.0806
   1347 C          28.7020    3.1890   12.7170 C.3   242  CCL242      0.1805
   1348 CL         27.0330    3.5700   13.3030 Cl    242  CCL242     -0.0870
   1349 CL         29.6610    2.5050   13.9780 Cl    242  CCL242     -0.0870
   1350 CL         29.6200    4.6420   12.0890 Cl    242  CCL242     -0.0870
   1351 HX         28.6400    2.4950   11.8840 H     242  CCL242      0.0806
   1352 C          12.8750   30.3050   38.1520 C.3   243  CCL243      0.1805
   1353 CL         11.5890   30.1580   39.4630 Cl    243  CCL243     -0.0870
   1354 CL         12.8150   31.8610   37.3180 Cl    243  CCL243     -0.0870
   1355 CL         12.7770   28.8530   37.1050 Cl    243  CCL243     -0.0870
   1356 HX         13.7720   30.1980   38.7550 H     243  CCL243      0.0806
   1357 C          28.6330   39.5430   47.0110 C.3   244  CCL244      0.1805
   1358 CL         28.2850   40.7180   48.2270 Cl    244  CCL244     -0.0870
   1359 CL         28.6600   37.8800   47.6650 Cl    244  CCL244     -0.0870
   1360 CL         30.1770   39.9870   46.2370 Cl    244  CCL244     -0.0870
   1361 HX         27.8620   39.5090   46.2470 H     244  CCL244      0.0806
   1362 C          20.7230    1.7470   17.5420 C.3   245  CCL245      0.1805
   1363 CL         20.9390    2.8490   16.2430 Cl    245  CCL245     -0.0870
   1364 CL         19.7290    0.4460   16.8780 Cl    245  CCL245     -0.0870
   1365 CL         19.9910    2.5270   18.9490 Cl    245  CCL245     -0.0870
   1366 HX         21.6770    1.2940   17.7960 H     245  CCL245      0.0806
   1367 C          14.5220   33.1960   14.5200 C.3   246  CCL246      0.1805
   1368 CL         14.6900   31.7220   15.4560 Cl    246  CCL246     -0.0870
   1369 CL         16.0280   34.1260   14.8250 Cl    246  CCL246     -0.0870
   1370 CL         13.1210   34.0370   15.3080 Cl    246  CCL246     -0.0870
   1371 HX         14.4150   32.9840   13.4600 H     246  CCL246      0.0806
   1372 C          13.7890   30.4220   10.5320 C.3   247  CCL247      0.1805
   1373 CL         12.8480   31.8140    9.8250 Cl    247  CCL247     -0.0870
   1374 CL         13.9310   29.0550    9.4070 Cl    247  CCL247     -0.0870
   1375 CL         13.2020   29.8330   12.0520 Cl    247  CCL247     -0.0870
   1376 HX         14.7070   30.9350   10.8040 H     247  CCL247      0.0806
   1377 C          44.9070    8.0290    1.7270 C.3   248  CCL248      0.1805
   1378 CL         44.2650    9.6480    1.3210 Cl    248  CCL248     -0.0870
   1379 CL         46.6100    7.9240    1.5310 Cl    248  CCL248     -0.0870
   1380 CL         44.0680    6.8630    0.6860 Cl    248  CCL248     -0.0870
   1381 HX         44.6820    7.7640    2.7560 H     248  CCL248      0.0806
   1382 C           0.2040   17.3620   29.9980 C.3   249  CCL249      0.1805
   1383 CL          1.3430   16.9060   31.2970 Cl    249  CCL249     -0.0870
   1384 CL         -0.8120   18.7390   30.5960 Cl    249  CCL249     -0.0870
   1385 CL         -0.7690   16.0170   29.5840 Cl    249  CCL249     -0.0870
   1386 HX          0.7030   17.4590   29.0380 H     249  CCL249      0.0806
   1387 C           1.3660   33.9170   10.7290 C.3   250  CCL250      0.1805
   1388 CL          2.8580   34.7140   10.2140 Cl    250  CCL250     -0.0870
   1389 CL          1.6130   32.9060   12.1530 Cl    250  CCL250     -0.0870
   1390 CL          0.6330   32.9380    9.4110 Cl    250  CCL250     -0.0870
   1391 HX          0.7660   34.8070   10.8930 H     250  CCL250      0.0806
   1392 C          40.2950   31.3370    9.1750 C.3   251  CCL251      0.1805
   1393 CL         39.3580   32.8470    9.2370 Cl    251  CCL251     -0.0870
   1394 CL         41.5470   31.2210    7.8740 Cl    251  CCL251     -0.0870
   1395 CL         39.1160   29.9670    9.1790 Cl    251  CCL251     -0.0870
   1396 HX         40.8470   31.2350   10.1040 H     251  CCL251      0.0806
   1397 C          37.0900   17.3560   41.2810 C.3   252  CCL252      0.1805
   1398 CL         37.3720   17.3280   42.9950 Cl    252  CCL252     -0.0870
   1399 CL         35.6900   16.5050   40.8270 Cl    252  CCL252     -0.0870
   1400 CL         38.5710   17.0020   40.4090 Cl    252  CCL252     -0.0870
   1401 HX         36.9150   18.3550   40.8920 H     252  CCL252      0.0806
   1402 C          13.2910   -4.2970    7.6540 C.3   253  CCL253      0.1805
   1403 CL         12.5580   -5.7560    7.1140 Cl    253  CCL253     -0.0870
   1404 CL         14.1910   -4.3720    9.1990 Cl    253  CCL253     -0.0870
   1405 CL         12.1820   -2.9500    7.6120 Cl    253  CCL253     -0.0870
   1406 HX         14.0090   -4.0660    6.8720 H     253  CCL253      0.0806
   1407 C           9.2170   10.4550   48.1970 C.3   254  CCL254      0.1805
   1408 CL          8.0130    9.1780   48.4220 Cl    254  CCL254     -0.0870
   1409 CL          9.0410   11.5340   46.7700 Cl    254  CCL254     -0.0870
   1410 CL         10.8250    9.8500   48.3390 Cl    254  CCL254     -0.0870
   1411 HX          9.0120   11.1430   49.0120 H     254  CCL254      0.0806
   1412 C           0.3220   11.7030   11.4590 C.3   255  CCL255      0.1805
   1413 CL         -0.1120   12.3240    9.9040 Cl    255  CCL255     -0.0870
   1414 CL         -0.9400   11.7800   12.6740 Cl    255  CCL255     -0.0870
   1415 CL          1.8760   12.3480   12.0980 Cl    255  CCL255     -0.0870
   1416 HX          0.3630   10.6360   11.2600 H     255  CCL255      0.0806
   1417 C          40.4380    5.4180   42.3070 C.3   256  CCL256      0.1805
   1418 CL         42.2010    5.3220   42.3930 Cl    256  CCL256     -0.0870
   1419 CL         39.7380    5.7400   43.9300 Cl    256  CCL256     -0.0870
   1420 CL         39.7870    3.9420   41.6300 Cl    256  CCL256     -0.0870
   1421 HX         40.2270    6.2760   41.6760 H     256  CCL256      0.0806
   1422 C          36.9250   36.7110   33.6380 C.3   257  CCL257      0.1805
   1423 CL         38.6470   36.4130   33.0800 Cl    257  CCL257     -0.0870
   1424 CL         36.7920   36.6770   35.3730 Cl    257  CCL257     -0.0870
   1425 CL         35.7730   35.6950   32.7880 Cl    257  CCL257     -0.0870
   1426 HX         36.7440   37.7270   33.3000 H     257  CCL257      0.0806
   1427 C          17.6680   35.1590   10.3250 C.3   258  CCL258      0.1805
   1428 CL         16.4420   34.0880    9.6790 Cl    258  CCL258     -0.0870
   1429 CL         19.3040   34.4560   10.2770 Cl    258  CCL258     -0.0870
   1430 CL         17.3930   35.5580   11.9460 Cl    258  CCL258     -0.0870
   1431 HX         17.7560   36.0710    9.7420 H     258  CCL258      0.0806
   1432 C          29.1790   -2.6320   14.9830 C.3   259  CCL259      0.1805
   1433 CL         27.4080   -2.2950   15.3020 Cl    259  CCL259     -0.0870
   1434 CL         30.2210   -2.4920   16.3930 Cl    259  CCL259     -0.0870
   1435 CL         29.8350   -1.5850   13.7230 Cl    259  CCL259     -0.0870
   1436 HX         29.2250   -3.6260   14.5480 H     259  CCL259      0.0806
   1437 C          46.7590    9.8930   35.5670 C.3   260  CCL260      0.1805
   1438 CL         46.4700    8.9350   34.0750 Cl    260  CCL260     -0.0870
   1439 CL         47.3970    8.9370   36.8560 Cl    260  CCL260     -0.0870
   1440 CL         45.3570   10.9310   35.9460 Cl    260  CCL260     -0.0870
   1441 HX         47.5860   10.5350   35.2770 H     260  CCL260      0.0806
   1442 C          32.9690   12.3990    2.5510 C.3   261  CCL261      0.1805
   1443 CL         33.7930   13.1100    3.9420 Cl    261  CCL261     -0.0870
   1444 CL         34.1070   11.4540    1.5980 Cl    261  CCL261     -0.0870
   1445 CL         31.9690   13.4830    1.5940 Cl    261  CCL261     -0.0870
   1446 HX         32.2740   11.6430    2.9040 H     261  CCL261      0.0806
   1447 C          35.7760   35.7210   17.9860 C.3   262  CCL262      0.1805
   1448 CL         35.0990   35.5560   16.3900 Cl    262  CCL262     -0.0870
   1449 CL         37.4440   35.2640   17.9160 Cl    262  CCL262     -0.0870
   1450 CL         34.8480   34.8390   19.1880 Cl    262  CCL262     -0.0870
   1451 HX         35.6960   36.7740   18.2400 H     262  CCL262      0.0806
   1452 C          27.4680   27.4390   38.7170 C.3   263  CCL263      0.1805
   1453 CL         26.6370   28.4780   39.8630 Cl    263  CCL263     -0.0870
   1454 CL         27.6230   28.2010   37.1730 Cl    263  CCL263     -0.0870
   1455 CL         26.4590   26.0020   38.6100 Cl    263  CCL263     -0.0870
   1456 HX         28.4450   27.1890   39.1190 H     263  CCL263      0.0806
   1457 C          26.7040   22.2070   31.7210 C.3   264  CCL264      0.1805
   1458 CL         26.2640   20.6740   32.3450 Cl    264  CCL264     -0.0870
   1459 CL         26.9750   22.2050   29.9940 Cl    264  CCL264     -0.0870
   1460 CL         28.1440   22.6170   32.6910 Cl    264  CCL264     -0.0870
   1461 HX         25.8700   22.8730   31.9210 H     264  CCL264      0.0806
   1462 C           9.7550   18.6840   35.0010 C.3   265  CCL265      0.1805
   1463 CL          9.7730   19.0290   33.2760 Cl    265  CCL265     -0.0870
   1464 CL          9.9590   20.1150   35.9860 Cl    265  CCL265     -0.0870
   1465 CL         10.8150   17.4570   35.5090 Cl    265  CCL265     -0.0870
   1466 HX          8.7250   18.4770   35.2790 H     265  CCL265      0.0806
   1467 C          26.8340   -1.2290   10.7250 C.3   266  CCL266      0.1805
   1468 CL         26.2540   -0.6950    9.1280 Cl    266  CCL266     -0.0870
   1469 CL         27.3230    0.2600   11.4880 Cl    266  CCL266     -0.0870
   1470 CL         28.1970   -2.4290   10.7850 Cl    266  CCL266     -0.0870
   1471 HX         26.0590   -1.7610   11.2680 H     266  CCL266      0.0806
   1472 C          14.1710   -9.8280   47.6490 C.3   267  CCL267      0.1805
   1473 CL         15.9240   -9.5900   47.8600 Cl    267  CCL267     -0.0870
   1474 CL         13.6450   -9.0730   46.1580 Cl    267  CCL267     -0.0870
   1475 CL         13.2920   -9.1620   48.9960 Cl    267  CCL267     -0.0870
   1476 HX         13.9420  -10.8890   47.6260 H     267  CCL267      0.0806
   1477 C           3.3680    9.6770   37.7570 C.3   268  CCL268      0.1805
   1478 CL          2.1190    8.4370   37.5100 Cl    268  CCL268     -0.0870
   1479 CL          3.6310   10.0030   39.4600 Cl    268  CCL268     -0.0870
   1480 CL          3.0000   11.1760   36.8320 Cl    268  CCL268     -0.0870
   1481 HX          4.2950    9.3520   37.2940 H     268  CCL268      0.0806
   1482 C          35.8890   22.1830   20.0710 C.3   269  CCL269      0.1805
   1483 CL         37.6880   21.9360   20.0440 Cl    269  CCL269     -0.0870
   1484 CL         35.2990   23.4020   21.1850 Cl    269  CCL269     -0.0870
   1485 CL         35.0690   20.7150   20.5890 Cl    269  CCL269     -0.0870
   1486 HX         35.6350   22.4870   19.0590 H     269  CCL269      0.0806
   1487 C          13.2990   36.5260   28.9320 C.3   270  CCL270      0.1805
   1488 CL         13.2160   37.5670   30.3620 Cl    270  CCL270     -0.0870
   1489 CL         14.7060   37.0630   27.9900 Cl    270  CCL270     -0.0870
   1490 CL         11.8810   36.5900   27.9310 Cl    270  CCL270     -0.0870
   1491 HX         13.4810   35.5110   29.2730 H     270  CCL270      0.0806
   1492 C          24.5860   -1.0270   31.5160 C.3   271  CCL271      0.1805
   1493 CL         23.7420    0.5560   31.7100 Cl    271  CCL271     -0.0870
   1494 CL         24.3250   -2.1710   32.8340 Cl    271  CCL271     -0.0870
   1495 CL         26.2780   -0.7900   31.0050 Cl    271  CCL271     -0.0870
   1496 HX         24.0920   -1.4800   30.6610 H     271  CCL271      0.0806
   1497 C          40.9930   19.5880   41.1430 C.3   272  CCL272      0.1805
   1498 CL         41.8010   21.0740   40.9190 Cl    272  CCL272     -0.0870
   1499 CL         40.6460   19.3940   42.8360 Cl    272  CCL272     -0.0870
   1500 CL         42.0840   18.4060   40.5030 Cl    272  CCL272     -0.0870
   1501 HX         40.0340   19.5300   40.6380 H     272  CCL272      0.0806
   1502 C          45.8240   13.3130   11.6320 C.3   273  CCL273      0.1805
   1503 CL         45.3020   14.8110   12.3880 Cl    273  CCL273     -0.0870
   1504 CL         45.9190   13.5730    9.8700 Cl    273  CCL273     -0.0870
   1505 CL         44.7080   11.9150   11.8600 Cl    273  CCL273     -0.0870
   1506 HX         46.8090   13.0970   12.0340 H     273  CCL273      0.0806
   1507 C          51.6730    5.3930   16.4500 C.3   274  CCL274      0.1805
   1508 CL         52.6500    5.3540   17.9230 Cl    274  CCL274     -0.0870
   1509 CL         50.2360    6.2350   16.8620 Cl    274  CCL274     -0.0870
   1510 CL         51.1870    3.7760   15.8450 Cl    274  CCL274     -0.0870
   1511 HX         52.1100    5.9690   15.6400 H     274  CCL274      0.0806
   1512 C           6.7660   29.6910   22.3050 C.3   275  CCL275      0.1805
   1513 CL          6.5940   27.9350   22.1470 Cl    275  CCL275     -0.0870
   1514 CL          7.6920   30.2290   20.9110 Cl    275  CCL275     -0.0870
   1515 CL          7.4630   30.2960   23.8410 Cl    275  CCL275     -0.0870
   1516 HX          5.7430   30.0260   22.1640 H     275  CCL275      0.0806
   1517 C          23.2060   32.8490   38.5900 C.3   276  CCL276      0.1805
   1518 CL         22.5330   32.4520   40.2800 Cl    276  CCL276     -0.0870
   1519 CL         24.5050   31.8270   38.0950 Cl    276  CCL276     -0.0870
   1520 CL         23.7870   34.5360   38.4780 Cl    276  CCL276     -0.0870
   1521 HX         22.4070   32.7230   37.8650 H     276  CCL276      0.0806
   1522 C          44.2720   21.7220   37.8860 C.3   277  CCL277      0.1805
   1523 CL         44.2410   19.9590   38.1440 Cl    277  CCL277     -0.0870
   1524 CL         43.1170   21.9920   36.5960 Cl    277  CCL277     -0.0870
   1525 CL         45.9210   22.2160   37.4050 Cl    277  CCL277     -0.0870
   1526 HX         43.9690   22.2710   38.7720 H     277  CCL277      0.0806
   1527 C           6.2130  -12.7300   19.1940 C.3   278  CCL278      0.1805
   1528 CL          6.6340  -14.2140   18.3430 Cl    278  CCL278     -0.0870
   1529 CL          4.6300  -12.1290   18.8520 Cl    278  CCL278     -0.0870
   1530 CL          7.4840  -11.5110   18.9000 Cl    278  CCL278     -0.0870
   1531 HX          6.0950  -13.0920   20.2110 H     278  CCL278      0.0806
   1532 C          17.0060  -10.5690   42.0270 C.3   279  CCL279      0.1805
   1533 CL         15.6230  -10.9040   43.0950 Cl    279  CCL279     -0.0870
   1534 CL         16.9410   -8.8800   41.4990 Cl    279  CCL279     -0.0870
   1535 CL         16.8940  -11.7450   40.6780 Cl    279  CCL279     -0.0870
   1536 HX         17.9410  -10.7010   42.5630 H     279  CCL279      0.0806
   1537 C          25.3960   18.0780    3.2840 C.3   280  CCL280      0.1805
   1538 CL         24.9080   16.7770    2.2370 Cl    280  CCL280     -0.0870
   1539 CL         24.3090   19.5090    3.1950 Cl    280  CCL280     -0.0870
   1540 CL         27.1180   18.4070    2.9920 Cl    280  CCL280     -0.0870
   1541 HX         25.3230   17.6690    4.2870 H     280  CCL280      0.0806
   1542 C          17.2480   23.0540   46.0330 C.3   281  CCL281      0.1805
   1543 CL         15.4480   23.0820   46.1130 Cl    281  CCL281     -0.0870
   1544 CL         18.0970   23.6160   47.4020 Cl    281  CCL281     -0.0870
   1545 CL         17.8120   23.8450   44.6290 Cl    281  CCL281     -0.0870
   1546 HX         17.6250   22.0530   45.8390 H     281  CCL281      0.0806
   1547 C          18.3670   10.6840   19.3370 C.3   282  CCL282      0.1805
   1548 CL         18.5870   12.3600   18.7100 Cl    282  CCL282     -0.0870
   1549 CL         19.8080   10.1660   20.2280 Cl    282  CCL282     -0.0870
   1550 CL         18.0890    9.5580   17.9940 Cl    282  CCL282     -0.0870
   1551 HX         17.5450   10.6150   20.0430 H     282  CCL282      0.0806
   1552 C          42.8590   39.2240   42.3910 C.3   283  CCL283      0.1805
   1553 CL         41.6600   39.6110   43.6550 Cl    283  CCL283     -0.0870
   1554 CL         42.7850   37.5510   41.7340 Cl    283  CCL283     -0.0870
   1555 CL         44.5380   39.6690   42.8920 Cl    283  CCL283     -0.0870
   1556 HX         42.6980   39.8920   41.5500 H     283  CCL283      0.0806
   1557 C           0.0280   34.8280   34.4030 C.3   284  CCL284      0.1805
   1558 CL         -0.2520   36.2200   35.3690 Cl    284  CCL284     -0.0870
   1559 CL          1.7190   34.3910   34.4070 Cl    284  CCL284     -0.0870
   1560 CL         -0.4380   35.0300   32.7770 Cl    284  CCL284     -0.0870
   1561 HX         -0.5680   33.9910   34.7550 H     284  CCL284      0.0806
   1562 C          50.6580   16.4240   28.7330 C.3   285  CCL285      0.1805
   1563 CL         50.4930   14.8540   29.4790 Cl    285  CCL285     -0.0870
   1564 CL         52.2690   16.6150   28.1170 Cl    285  CCL285     -0.0870
   1565 CL         50.2480   17.8740   29.6580 Cl    285  CCL285     -0.0870
   1566 HX         49.9900   16.3510   27.8800 H     285  CCL285      0.0806
   1567 C          16.2600   43.1740   26.4240 C.3   286  CCL286      0.1805
   1568 CL         15.9460   44.9070   26.5460 Cl    286  CCL286     -0.0870
   1569 CL         16.3350   42.3370   27.9770 Cl    286  CCL286     -0.0870
   1570 CL         17.8220   43.0710   25.6330 Cl    286  CCL286     -0.0870
   1571 HX         15.5610   42.7610   25.7020 H     286  CCL286      0.0806
   1572 C          22.7700   10.2640   14.7430 C.3   287  CCL287      0.1805
   1573 CL         24.3700   10.8600   15.2620 Cl    287  CCL287     -0.0870
   1574 CL         22.3810    8.7340   15.5880 Cl    287  CCL287     -0.0870
   1575 CL         22.7770   10.0120   13.0370 Cl    287  CCL287     -0.0870
   1576 HX         22.0080   11.0190   14.9150 H     287  CCL287      0.0806
   1577 C          27.3710   30.3020   20.9310 C.3   288  CCL288      0.1805
   1578 CL         25.8870   31.1950   20.9880 Cl    288  CCL288     -0.0870
   1579 CL         27.3700   29.3820   19.4160 Cl    288  CCL288     -0.0870
   1580 CL         27.6730   29.2720   22.3780 Cl    288  CCL288     -0.0870
   1581 HX         28.2520   30.9310   20.8440 H     288  CCL288      0.0806
   1582 C          16.2660   18.1410   47.3200 C.3   289  CCL289      0.1805
   1583 CL         15.1110   19.4960   47.5600 Cl    289  CCL289     -0.0870
   1584 CL         17.0380   18.0880   45.7050 Cl    289  CCL289     -0.0870
   1585 CL         15.5240   16.5410   47.5450 Cl    289  CCL289     -0.0870
   1586 HX         17.0290   18.1760   48.0930 H     289  CCL289      0.0806
   1587 C          17.9680   30.4000   13.1430 C.3   290  CCL290      0.1805
   1588 CL         16.3620   29.7130   12.9370 Cl    290  CCL290     -0.0870
   1589 CL         18.7140   30.2800   14.7230 Cl    290  CCL290     -0.0870
   1590 CL         18.1210   31.9150   12.3560 Cl    290  CCL290     -0.0870
   1591 HX         18.5430   29.7660   12.4740 H     290  CCL290      0.0806
   1592 C          25.6840   18.2580   13.9150 C.3   291  CCL291      0.1805
   1593 CL         25.4980   19.9630   13.8290 Cl    291  CCL291     -0.0870
   1594 CL         24.2130   17.2470   13.5640 Cl    291  CCL291     -0.0870
   1595 CL         26.3280   17.8100   15.5560 Cl    291  CCL291     -0.0870
   1596 HX         26.3900   18.0520   13.1160 H     291  CCL291      0.0806
   1597 C          -5.0870   18.2550   18.5450 C.3   292  CCL292      0.1805
   1598 CL         -4.6750   17.3450   17.0490 Cl    292  CCL292     -0.0870
   1599 CL         -4.1090   19.6940   18.9020 Cl    292  CCL292     -0.0870
   1600 CL         -5.1060   17.1940   19.9530 Cl    292  CCL292     -0.0870
   1601 HX         -6.0880   18.6650   18.4520 H     292  CCL292      0.0806
   1602 C          31.8740   19.4580   18.2040 C.3   293  CCL293      0.1805
   1603 CL         33.2980   19.9050   17.2760 Cl    293  CCL293     -0.0870
   1604 CL         30.4940   18.9140   17.1530 Cl    293  CCL293     -0.0870
   1605 CL         31.4250   20.9560   19.0500 Cl    293  CCL293     -0.0870
   1606 HX         32.1960   18.6430   18.8450 H     293  CCL293      0.0806
   1607 C          40.7280    4.5980   12.3300 C.3   294  CCL294      0.1805
   1608 CL         40.0690    4.6840   10.7340 Cl    294  CCL294     -0.0870
   1609 CL         41.6590    6.0400   12.4600 Cl    294  CCL294     -0.0870
   1610 CL         41.6620    3.2180   12.7740 Cl    294  CCL294     -0.0870
   1611 HX         39.8510    4.5880   12.9690 H     294  CCL294      0.0806
   1612 C          39.8770   42.5500   45.5800 C.3   295  CCL295      0.1805
   1613 CL         40.1860   41.7450   47.1230 Cl    295  CCL295     -0.0870
   1614 CL         40.3930   44.1610   45.8910 Cl    295  CCL295     -0.0870
   1615 CL         38.1090   42.5680   45.1180 Cl    295  CCL295     -0.0870
   1616 HX         40.5020   42.1330   44.7960 H     295  CCL295      0.0806
   1617 C          18.7510   26.5220   17.4440 C.3   296  CCL296      0.1805
   1618 CL         20.4850   26.2440   17.1880 Cl    296  CCL296     -0.0870
   1619 CL         17.9820   26.8950   15.8500 Cl    296  CCL296     -0.0870
   1620 CL         18.4760   27.8640   18.5870 Cl    296  CCL296     -0.0870
   1621 HX         18.3720   25.5560   17.7670 H     296  CCL296      0.0806
   1622 C          33.2870   10.0790   -2.0090 C.3   297  CCL297      0.1805
   1623 CL         32.7260    8.4350   -1.8380 Cl    297  CCL297     -0.0870
   1624 CL         32.1920   11.2850   -1.5450 Cl    297  CCL297     -0.0870
   1625 CL         34.0570   10.2290   -3.5600 Cl    297  CCL297     -0.0870
   1626 HX         34.1060   10.1350   -1.2980 H     297  CCL297      0.0806
   1627 C           0.2870   30.2710   31.0340 C.3   298  CCL298      0.1805
   1628 CL          1.3420   29.7510   29.6730 Cl    298  CCL298     -0.0870
   1629 CL         -0.4510   31.7930   30.7220 Cl    298  CCL298     -0.0870
   1630 CL          1.2360   30.3220   32.5280 Cl    298  CCL298     -0.0870
   1631 HX         -0.5740   29.6100   31.0410 H     298  CCL298      0.0806
   1632 C          35.3210   38.0470   40.2290 C.3   299  CCL299      0.1805
   1633 CL         35.3280   38.7410   41.8110 Cl    299  CCL299     -0.0870
   1634 CL         36.7270   37.0600   39.7550 Cl    299  CCL299     -0.0870
   1635 CL         35.1950   39.4310   39.1080 Cl    299  CCL299     -0.0870
   1636 HX         34.4340   37.4620   40.0060 H     299  CCL299      0.0806
   1637 C           6.7520   10.0350   43.4160 C.3   300  CCL300      0.1805
   1638 CL          8.3260    9.2380   43.4140 Cl    300  CCL300     -0.0870
   1639 CL          5.5260    8.8240   43.7420 Cl    300  CCL300     -0.0870
   1640 CL          6.4040   11.0380   41.9410 Cl    300  CCL300     -0.0870
   1641 HX          6.7400   10.6270   44.3260 H     300  CCL300      0.0806
   1642 C           0.8840    1.7320   11.0170 C.3   301  CCL301      0.1805
   1643 CL          1.6470    3.3080   11.1880 Cl    301  CCL301     -0.0870
   1644 CL          2.0330    0.3850   11.2330 Cl    301  CCL301     -0.0870
   1645 CL         -0.0910    1.4590    9.5180 Cl    301  CCL301     -0.0870
   1646 HX          0.1660    1.6430   11.8270 H     301  CCL301      0.0806
   1647 C          28.6560   -2.8990   26.4030 C.3   302  CCL302      0.1805
   1648 CL         26.9610   -2.3410   26.6090 Cl    302  CCL302     -0.0870
   1649 CL         29.0370   -3.0270   24.6650 Cl    302  CCL302     -0.0870
   1650 CL         28.7740   -4.5560   27.1420 Cl    302  CCL302     -0.0870
   1651 HX         29.4900   -2.3230   26.7960 H     302  CCL302      0.0806
   1652 C          43.7530   16.3150   18.4720 C.3   303  CCL303      0.1805
   1653 CL         44.0460   18.0720   18.6320 Cl    303  CCL303     -0.0870
   1654 CL         44.4510   15.6750   16.9920 Cl    303  CCL303     -0.0870
   1655 CL         42.0520   15.9610   18.5010 Cl    303  CCL303     -0.0870
   1656 HX         44.1300   15.7470   19.3180 H     303  CCL303      0.0806
   1657 C          36.3080   20.5020   44.8140 C.3   304  CCL304      0.1805
   1658 CL         35.8510   21.6740   45.9920 Cl    304  CCL304     -0.0870
   1659 CL         37.9850   20.6330   44.4670 Cl    304  CCL304     -0.0870
   1660 CL         35.3510   20.6450   43.2840 Cl    304  CCL304     -0.0870
   1661 HX         36.1640   19.5030   45.2150 H     304  CCL304      0.0806
   1662 C          23.2740   38.9280   14.9020 C.3   305  CCL305      0.1805
   1663 CL         23.0100   38.9320   16.6290 Cl    305  CCL305     -0.0870
   1664 CL         24.6240   39.8910   14.3940 Cl    305  CCL305     -0.0870
   1665 CL         21.8020   39.4640   14.0450 Cl    305  CCL305     -0.0870
   1666 HX         23.4350   37.8780   14.6750 H     305  CCL305      0.0806
   1667 C          11.1620    4.2620    3.4310 C.3   306  CCL306      0.1805
   1668 CL         10.2910    5.3980    2.5050 Cl    306  CCL306     -0.0870
   1669 CL         10.9820    4.5550    5.1750 Cl    306  CCL306     -0.0870
   1670 CL         12.7920    4.4710    2.9660 Cl    306  CCL306     -0.0870
   1671 HX         10.8780    3.2460    3.1720 H     306  CCL306      0.0806
   1672 C          26.3200   40.3580   23.7060 C.3   307  CCL307      0.1805
   1673 CL         27.5220   41.0520   24.7820 Cl    307  CCL307     -0.0870
   1674 CL         26.9160   39.1450   22.5270 Cl    307  CCL307     -0.0870
   1675 CL         25.5000   41.7080   22.8890 Cl    307  CCL307     -0.0870
   1676 HX         25.6750   39.7430   24.3270 H     307  CCL307      0.0806
   1677 C           6.5950   15.1270   23.2540 C.3   308  CCL308      0.1805
   1678 CL          8.2120   14.6740   23.9560 Cl    308  CCL308     -0.0870
   1679 CL          5.7580   13.7400   22.6470 Cl    308  CCL308     -0.0870
   1680 CL          6.8220   16.4540   22.0340 Cl    308  CCL308     -0.0870
   1681 HX          6.0310   15.6020   24.0510 H     308  CCL308      0.0806
   1682 C          12.9720   30.1570    5.1520 C.3   309  CCL309      0.1805
   1683 CL         12.3810   31.2190    3.9020 Cl    309  CCL309     -0.0870
   1684 CL         14.3590   30.6600    6.1120 Cl    309  CCL309     -0.0870
   1685 CL         13.2130   28.4720    4.6220 Cl    309  CCL309     -0.0870
   1686 HX         12.1880   30.1750    5.9040 H     309  CCL309      0.0806
   1687 C          -2.0120   30.4220   50.0890 C.3   310  CCL310      0.1805
   1688 CL         -1.7460   30.9090   48.4490 Cl    310  CCL310     -0.0870
   1689 CL         -0.9110   29.2710   50.6540 Cl    310  CCL310     -0.0870
   1690 CL         -3.6500   29.7230   50.2940 Cl    310  CCL310     -0.0870
   1691 HX         -1.9100   31.2700   50.7600 H     310  CCL310      0.0806
   1692 C          30.9190   15.1070   10.0810 C.3   311  CCL311      0.1805
   1693 CL         30.1310   14.3620    8.6870 Cl    311  CCL311     -0.0870
   1694 CL         30.4990   16.8630   10.2400 Cl    311  CCL311     -0.0870
   1695 CL         32.6790   15.0120   10.0340 Cl    311  CCL311     -0.0870
   1696 HX         30.5610   14.5930   10.9690 H     311  CCL311      0.0806
   1697 C          15.3150   19.5340   18.9430 C.3   312  CCL312      0.1805
   1698 CL         14.5350   18.7620   20.3480 Cl    312  CCL312     -0.0870
   1699 CL         14.1130   20.4710   17.9460 Cl    312  CCL312     -0.0870
   1700 CL         16.2780   18.3080   18.0840 Cl    312  CCL312     -0.0870
   1701 HX         16.0680   20.1500   19.4240 H     312  CCL312      0.0806
   1702 C          43.3370   10.0640   30.1000 C.3   313  CCL313      0.1805
   1703 CL         44.5260   10.7000   31.2750 Cl    313  CCL313     -0.0870
   1704 CL         42.0690   11.2830   29.7830 Cl    313  CCL313     -0.0870
   1705 CL         42.7450    8.4870   30.6520 Cl    313  CCL313     -0.0870
   1706 HX         43.8070    9.9400   29.1290 H     313  CCL313      0.0806
   1707 C          24.6480   35.1220   17.2860 C.3   314  CCL314      0.1805
   1708 CL         23.5130   35.4520   15.9820 Cl    314  CCL314     -0.0870
   1709 CL         26.1150   35.9500   17.1010 Cl    314  CCL314     -0.0870
   1710 CL         24.8860   33.4280   17.5890 Cl    314  CCL314     -0.0870
   1711 HX         24.2390   35.5220   18.2090 H     314  CCL314      0.0806
   1712 C          -0.0050   16.0520   14.0250 C.3   315  CCL315      0.1805
   1713 CL          0.4870   17.4130   12.9940 Cl    315  CCL315     -0.0870
   1714 CL         -1.3410   16.3880   15.1110 Cl    315  CCL315     -0.0870
   1715 CL          1.4260   15.5210   14.9330 Cl    315  CCL315     -0.0870
   1716 HX         -0.3440   15.2200   13.4140 H     315  CCL315      0.0806
   1717 C          22.3980  -10.7780   44.0930 C.3   316  CCL316      0.1805
   1718 CL         23.4990  -12.0900   43.9190 Cl    316  CCL316     -0.0870
   1719 CL         23.4180   -9.2520   44.0780 Cl    316  CCL316     -0.0870
   1720 CL         21.4120  -10.9230   45.6630 Cl    316  CCL316     -0.0870
   1721 HX         21.6830  -10.7820   43.2750 H     316  CCL316      0.0806
   1722 C          20.4230   15.5320    6.7310 C.3   317  CCL317      0.1805
   1723 CL         21.7750   16.6700    6.5000 Cl    317  CCL317     -0.0870
   1724 CL         19.6410   15.8820    8.3040 Cl    317  CCL317     -0.0870
   1725 CL         20.9770   13.8060    6.5840 Cl    317  CCL317     -0.0870
   1726 HX         19.6980   15.7900    5.9650 H     317  CCL317      0.0806
   1727 C          41.8160   17.8140   10.1610 C.3   318  CCL318      0.1805
   1728 CL         43.3070   16.9840    9.7910 Cl    318  CCL318     -0.0870
   1729 CL         40.3920   17.4850    9.1250 Cl    318  CCL318     -0.0870
   1730 CL         42.0700   19.5450   10.2750 Cl    318  CCL318     -0.0870
   1731 HX         41.6290   17.4870   11.1800 H     318  CCL318      0.0806
   1732 C          12.6770   23.5050   35.2090 C.3   319  CCL319      0.1805
   1733 CL         13.9150   24.0600   36.3790 Cl    319  CCL319     -0.0870
   1734 CL         11.0380   23.5820   35.8150 Cl    319  CCL319     -0.0870
   1735 CL         12.9590   21.8390   34.5540 Cl    319  CCL319     -0.0870
   1736 HX         12.7620   24.1460   34.3360 H     319  CCL319      0.0806
   1737 C           7.0050    9.4650   52.2950 C.3   320  CCL320      0.1805
   1738 CL          8.1180    8.7880   53.5480 Cl    320  CCL320     -0.0870
   1739 CL          7.6940   11.0660   51.8610 Cl    320  CCL320     -0.0870
   1740 CL          5.3160    9.3890   52.8640 Cl    320  CCL320     -0.0870
   1741 HX          7.1630    8.8400   51.4210 H     320  CCL320      0.0806
   1742 C          49.0690   14.3080   18.6900 C.3   321  CCL321      0.1805
   1743 CL         50.2880   15.5310   18.2380 Cl    321  CCL321     -0.0870
   1744 CL         49.1910   13.0780   17.4910 Cl    321  CCL321     -0.0870
   1745 CL         47.4710   14.9930   18.7570 Cl    321  CCL321     -0.0870
   1746 HX         49.3700   13.8920   19.6470 H     321  CCL321      0.0806
   1747 C          24.9520   26.7240   48.8250 C.3   322  CCL322      0.1805
   1748 CL         26.3720   27.8690   48.6900 Cl    322  CCL322     -0.0870
   1749 CL         25.3760   25.1550   48.0260 Cl    322  CCL322     -0.0870
   1750 CL         23.4520   27.4090   48.2200 Cl    322  CCL322     -0.0870
   1751 HX         24.8870   26.4850   49.8820 H     322  CCL322      0.0806
   1752 C          14.4430   -3.0900    3.1810 C.3   323  CCL323      0.1805
   1753 CL         16.0030   -3.2350    2.3900 Cl    323  CCL323     -0.0870
   1754 CL         14.1180   -1.5180    3.9490 Cl    323  CCL323     -0.0870
   1755 CL         14.3660   -4.4520    4.2780 Cl    323  CCL323     -0.0870
   1756 HX         13.7300   -3.2610    2.3800 H     323  CCL323      0.0806
   1757 C          22.2190   23.9770   38.0130 C.3   324  CCL324      0.1805
   1758 CL         21.1120   25.1110   37.1610 Cl    324  CCL324     -0.0870
   1759 CL         21.3270   22.7490   38.9900 Cl    324  CCL324     -0.0870
   1760 CL         23.1640   24.9090   39.1450 Cl    324  CCL324     -0.0870
   1761 HX         22.9390   23.6210   37.2820 H     324  CCL324      0.0806
   1762 C          48.4300   13.1430   38.3710 C.3   325  CCL325      0.1805
   1763 CL         48.9580   12.0330   39.6990 Cl    325  CCL325     -0.0870
   1764 CL         46.7380   13.5560   38.4020 Cl    325  CCL325     -0.0870
   1765 CL         48.8250   12.4760   36.7480 Cl    325  CCL325     -0.0870
   1766 HX         48.8810   14.1290   38.4250 H     325  CCL325      0.0806
   1767 C          49.4640   20.3630   32.2920 C.3   326  CCL326      0.1805
   1768 CL         48.0090   20.2100   33.1230 Cl    326  CCL326     -0.0870
   1769 CL         50.8420   20.6280   33.2910 Cl    326  CCL326     -0.0870
   1770 CL         49.4100   21.6460   31.0900 Cl    326  CCL326     -0.0870
   1771 HX         49.5260   19.4720   31.6740 H     326  CCL326      0.0806
   1772 C          12.5290   -1.8500   38.3960 C.3   327  CCL327      0.1805
   1773 CL         11.0630   -2.4160   39.1290 Cl    327  CCL327     -0.0870
   1774 CL         12.8650   -2.4740   36.7940 Cl    327  CCL327     -0.0870
   1775 CL         13.9970   -1.7870   39.4340 Cl    327  CCL327     -0.0870
   1776 HX         12.4770   -0.7890   38.1700 H     327  CCL327      0.0806
   1777 C          20.8750   26.5510   33.5290 C.3   328  CCL328      0.1805
   1778 CL         21.4360   24.9110   33.7540 Cl    328  CCL328     -0.0870
   1779 CL         21.2620   27.4160   31.9940 Cl    328  CCL328     -0.0870
   1780 CL         21.3410   27.4750   34.9380 Cl    328  CCL328     -0.0870
   1781 HX         19.7980   26.6600   33.6120 H     328  CCL328      0.0806
   1782 C          22.5690    5.3210   33.1240 C.3   329  CCL329      0.1805
   1783 CL         22.4270    5.5590   34.8690 Cl    329  CCL329     -0.0870
   1784 CL         24.2190    5.2150   32.7400 Cl    329  CCL329     -0.0870
   1785 CL         21.8780    6.5520   32.0840 Cl    329  CCL329     -0.0870
   1786 HX         22.1450    4.3860   32.7710 H     329  CCL329      0.0806
   1787 C          19.8750   40.5750   47.3590 C.3   330  CCL330      0.1805
   1788 CL         20.2310   38.8550   46.8080 Cl    330  CCL330     -0.0870
   1789 CL         20.5110   40.7610   49.0550 Cl    330  CCL330     -0.0870
   1790 CL         18.1140   40.7790   47.2700 Cl    330  CCL330     -0.0870
   1791 HX         20.2890   41.3540   46.7250 H     330  CCL330      0.0806
   1792 C          19.5030   36.5710   14.7370 C.3   331  CCL331      0.1805
   1793 CL         20.6620   36.5250   13.3990 Cl    331  CCL331     -0.0870
   1794 CL         19.1270   38.1820   15.1740 Cl    331  CCL331     -0.0870
   1795 CL         19.8960   35.6100   16.2070 Cl    331  CCL331     -0.0870
   1796 HX         18.5830   36.0800   14.4350 H     331  CCL331      0.0806
   1797 C          31.2060   31.5760   27.9320 C.3   332  CCL332      0.1805
   1798 CL         30.1100   31.8160   26.5630 Cl    332  CCL332     -0.0870
   1799 CL         32.4120   32.8070   28.0830 Cl    332  CCL332     -0.0870
   1800 CL         31.9430   29.9880   27.6900 Cl    332  CCL332     -0.0870
   1801 HX         30.6240   31.4610   28.8410 H     332  CCL332      0.0806
   1802 C           0.2840    7.4180   12.5780 C.3   333  CCL333      0.1805
   1803 CL         -0.1980    6.4970   13.9620 Cl    333  CCL333     -0.0870
   1804 CL          1.4450    8.6500   13.1300 Cl    333  CCL333     -0.0870
   1805 CL         -1.1800    8.0760   11.7440 Cl    333  CCL333     -0.0870
   1806 HX          0.8480    6.8090   11.8780 H     333  CCL333      0.0806
   1807 C          -6.3810   20.2860   21.6550 C.3   334  CCL334      0.1805
   1808 CL         -5.8390   21.8640   21.0600 Cl    334  CCL334     -0.0870
   1809 CL         -7.7650   19.7210   20.6050 Cl    334  CCL334     -0.0870
   1810 CL         -6.9080   20.4000   23.2940 Cl    334  CCL334     -0.0870
   1811 HX         -5.6180   19.5260   21.5150 H     334  CCL334      0.0806
   1812 C          38.1740   23.4960    2.8380 C.3   335  CCL335      0.1805
   1813 CL         39.3830   24.3540    3.8050 Cl    335  CCL335     -0.0870
   1814 CL         36.9970   24.5940    2.1470 Cl    335  CCL335     -0.0870
   1815 CL         37.4350   22.2560    3.9430 Cl    335  CCL335     -0.0870
   1816 HX         38.6990   23.0540    1.9970 H     335  CCL335      0.0806
   1817 C           7.8240    1.5000   23.7810 C.3   336  CCL336      0.1805
   1818 CL          7.9580    2.8120   25.0140 Cl    336  CCL336     -0.0870
   1819 CL          6.2130    1.5740   23.0080 Cl    336  CCL336     -0.0870
   1820 CL          8.1970   -0.0620   24.5950 Cl    336  CCL336     -0.0870
   1821 HX          8.5260    1.7160   22.9810 H     336  CCL336      0.0806
   1822 C          28.2030   49.2780    4.9040 C.3   337  CCL337      0.1805
   1823 CL         28.7440   47.6870    5.6220 Cl    337  CCL337     -0.0870
   1824 CL         29.4420   50.4430    5.2820 Cl    337  CCL337     -0.0870
   1825 CL         26.6580   49.9290    5.4880 Cl    337  CCL337     -0.0870
   1826 HX         28.2900   49.1010    3.8370 H     337  CCL337      0.0806
   1827 C          -2.7010   27.6000   17.0800 C.3   338  CCL338      0.1805
   1828 CL         -3.8180   28.2860   15.8460 Cl    338  CCL338     -0.0870
   1829 CL         -3.4130   26.5470   18.2470 Cl    338  CCL338     -0.0870
   1830 CL         -1.7950   28.8740   17.8400 Cl    338  CCL338     -0.0870
   1831 HX         -1.9530   26.9860   16.5860 H     338  CCL338      0.0806
   1832 C          20.8320   -4.4470   42.9370 C.3   339  CCL339      0.1805
   1833 CL         20.8950   -4.4170   41.1630 Cl    339  CCL339     -0.0870
   1834 CL         20.6280   -6.0660   43.5720 Cl    339  CCL339     -0.0870
   1835 CL         19.4190   -3.5510   43.5240 Cl    339  CCL339     -0.0870
   1836 HX         21.6810   -3.8750   43.2980 H     339  CCL339      0.0806
   1837 C          13.0340   -2.4930   29.7650 C.3   340  CCL340      0.1805
   1838 CL         12.1220   -1.7680   28.4840 Cl    340  CCL340     -0.0870
   1839 CL         14.6170   -2.5570   29.1110 Cl    340  CCL340     -0.0870
   1840 CL         12.3980   -3.9930   30.3010 Cl    340  CCL340     -0.0870
   1841 HX         12.9610   -1.8310   30.6230 H     340  CCL340      0.0806
   1842 C           8.9310   31.4300   11.9130 C.3   341  CCL341      0.1805
   1843 CL         10.4580   32.2020   12.2940 Cl    341  CCL341     -0.0870
   1844 CL          7.6050   32.4930   12.3830 Cl    341  CCL341     -0.0870
   1845 CL          8.7970   29.8780   12.7650 Cl    341  CCL341     -0.0870
   1846 HX          8.7540   31.1090   10.8900 H     341  CCL341      0.0806
   1847 C          15.9910   -6.0770   18.2070 C.3   342  CCL342      0.1805
   1848 CL         15.6400   -6.9700   16.6760 Cl    342  CCL342     -0.0870
   1849 CL         15.2210   -6.9720   19.4880 Cl    342  CCL342     -0.0870
   1850 CL         15.5780   -4.3690   18.0170 Cl    342  CCL342     -0.0870
   1851 HX         17.0050   -6.2430   18.5590 H     342  CCL342      0.0806
   1852 C           2.0870   19.4050   54.1860 C.3   343  CCL343      0.1805
   1853 CL          2.6140   18.6380   55.7340 Cl    343  CCL343     -0.0870
   1854 CL          1.5600   18.3230   52.9480 Cl    343  CCL343     -0.0870
   1855 CL          3.2460   20.6330   53.6560 Cl    343  CCL343     -0.0870
   1856 HX          1.2000   19.9400   54.5140 H     343  CCL343      0.0806
   1857 C          25.1310   46.1430   24.5150 C.3   344  CCL344      0.1805
   1858 CL         26.4190   47.2020   25.1960 Cl    344  CCL344     -0.0870
   1859 CL         25.1530   44.5140   25.0610 Cl    344  CCL344     -0.0870
   1860 CL         25.1640   46.4580   22.7510 Cl    344  CCL344     -0.0870
   1861 HX         24.2700   46.6600   24.9280 H     344  CCL344      0.0806
   1862 C          15.8820   15.6270   51.5830 C.3   345  CCL345      0.1805
   1863 CL         17.6310   15.4990   51.6080 Cl    345  CCL345     -0.0870
   1864 CL         15.1740   14.3090   50.6620 Cl    345  CCL345     -0.0870
   1865 CL         15.5140   17.2110   50.8380 Cl    345  CCL345     -0.0870
   1866 HX         15.4870   15.4810   52.5840 H     345  CCL345      0.0806
   1867 C          26.3010   49.1560    1.0080 C.3   346  CCL346      0.1805
   1868 CL         25.3190   48.5520   -0.3220 Cl    346  CCL346     -0.0870
   1869 CL         26.6600   47.8330    2.1210 Cl    346  CCL346     -0.0870
   1870 CL         25.5670   50.4910    1.7680 Cl    346  CCL346     -0.0870
   1871 HX         27.1980   49.5800    0.5660 H     346  CCL346      0.0806
   1872 C           6.5970   40.0430    9.0370 C.3   347  CCL347      0.1805
   1873 CL          6.4020   38.6810    7.9180 Cl    347  CCL347     -0.0870
   1874 CL          8.1230   40.0110    9.9100 Cl    347  CCL347     -0.0870
   1875 CL          5.1700   40.3230   10.0140 Cl    347  CCL347     -0.0870
   1876 HX          6.7820   40.9340    8.4450 H     347  CCL347      0.0806
   1877 C          38.4160   19.6730   11.7960 C.3   348  CCL348      0.1805
   1878 CL         38.3220   21.4190   11.6740 Cl    348  CCL348     -0.0870
   1879 CL         37.0940   18.9580   10.9630 Cl    348  CCL348     -0.0870
   1880 CL         38.5150   19.2660   13.4900 Cl    348  CCL348     -0.0870
   1881 HX         39.3540   19.2900   11.4060 H     348  CCL348      0.0806
   1882 C          18.8480   -1.7480   46.9410 C.3   349  CCL349      0.1805
   1883 CL         19.2770   -0.4330   47.9580 Cl    349  CCL349     -0.0870
   1884 CL         17.0730   -1.7750   47.0460 Cl    349  CCL349     -0.0870
   1885 CL         19.6260   -3.2240   47.4030 Cl    349  CCL349     -0.0870
   1886 HX         19.1230   -1.4800   45.9250 H     349  CCL349      0.0806
   1887 C           8.5370   14.2290   35.9690 C.3   350  CCL350      0.1805
   1888 CL         10.0450   14.1320   36.8730 Cl    350  CCL350     -0.0870
   1889 CL          8.9240   13.8730   34.2250 Cl    350  CCL350     -0.0870
   1890 CL          7.7130   15.7240   36.1630 Cl    350  CCL350     -0.0870
   1891 HX          7.9180   13.4410   36.3870 H     350  CCL350      0.0806
   1892 C          30.5260   25.8870   32.8700 C.3   351  CCL351      0.1805
   1893 CL         31.8080   26.0830   31.7670 Cl    351  CCL351     -0.0870
   1894 CL         30.3540   27.2860   33.9790 Cl    351  CCL351     -0.0870
   1895 CL         30.7630   24.4300   33.9410 Cl    351  CCL351     -0.0870
   1896 HX         29.5920   25.7840   32.3250 H     351  CCL351      0.0806
   1897 C          18.2050   22.2650   17.2260 C.3   352  CCL352      0.1805
   1898 CL         17.2290   23.4330   16.3780 Cl    352  CCL352     -0.0870
   1899 CL         19.9180   22.6230   17.3660 Cl    352  CCL352     -0.0870
   1900 CL         18.1800   20.6970   16.4730 Cl    352  CCL352     -0.0870
   1901 HX         17.8770   22.1230   18.2520 H     352  CCL352      0.0806
   1902 C          31.0060   15.4670   28.4870 C.3   353  CCL353      0.1805
   1903 CL         29.2570   15.7280   28.4020 Cl    353  CCL353     -0.0870
   1904 CL         31.3570   13.9750   29.2630 Cl    353  CCL353     -0.0870
   1905 CL         31.8480   16.7820   29.4040 Cl    353  CCL353     -0.0870
   1906 HX         31.3020   15.4940   27.4430 H     353  CCL353      0.0806
   1907 C          43.0840   30.0710   36.1740 C.3   354  CCL354      0.1805
   1908 CL         41.9540   31.4380   36.1510 Cl    354  CCL354     -0.0870
   1909 CL         42.2140   28.5100   35.9190 Cl    354  CCL354     -0.0870
   1910 CL         43.9540   30.0440   37.6290 Cl    354  CCL354     -0.0870
   1911 HX         43.8080   30.1920   35.3730 H     354  CCL354      0.0806
   1912 C           1.5430   28.9120   14.3270 C.3   355  CCL355      0.1805
   1913 CL          2.8840   29.9990   14.1250 Cl    355  CCL355     -0.0870
   1914 CL          1.4200   27.6910   13.0770 Cl    355  CCL355     -0.0870
   1915 CL          0.0310   29.8680   14.3510 Cl    355  CCL355     -0.0870
   1916 HX          1.6570   28.4070   15.2810 H     355  CCL355      0.0806
   1917 C          22.4660    3.8210    3.5950 C.3   356  CCL356      0.1805
   1918 CL         23.3410    2.8990    4.8360 Cl    356  CCL356     -0.0870
   1919 CL         20.8600    3.2090    3.5480 Cl    356  CCL356     -0.0870
   1920 CL         23.2580    3.7320    2.0000 Cl    356  CCL356     -0.0870
   1921 HX         22.3490    4.8530    3.9130 H     356  CCL356      0.0806
   1922 C           9.4500   29.7600   36.0300 C.3   357  CCL357      0.1805
   1923 CL          7.8300   30.3130   35.7880 Cl    357  CCL357     -0.0870
   1924 CL         10.4210   30.4180   34.6480 Cl    357  CCL357     -0.0870
   1925 CL          9.5670   28.0330   36.0170 Cl    357  CCL357     -0.0870
   1926 HX          9.7720   30.0550   37.0250 H     357  CCL357      0.0806
   1927 C          14.2810   21.0420   42.2080 C.3   358  CCL358      0.1805
   1928 CL         15.5460   21.4870   41.0490 Cl    358  CCL358     -0.0870
   1929 CL         14.8830   20.4070   43.7070 Cl    358  CCL358     -0.0870
   1930 CL         13.1810   19.8620   41.5310 Cl    358  CCL358     -0.0870
   1931 HX         13.8450   22.0020   42.4670 H     358  CCL358      0.0806
   1932 C         -11.4100   28.5490   17.1920 C.3   359  CCL359      0.1805
   1933 CL        -12.4600   29.4620   16.1590 Cl    359  CCL359     -0.0870
   1934 CL        -12.3250   27.6380   18.3940 Cl    359  CCL359     -0.0870
   1935 CL        -10.2160   29.7010   17.9730 Cl    359  CCL359     -0.0870
   1936 HX        -10.8800   27.8490   16.5530 H     359  CCL359      0.0806
   1937 C          33.9910   36.1790   46.9200 C.3   360  CCL360      0.1805
   1938 CL         34.6700   36.9770   45.5600 Cl    360  CCL360     -0.0870
   1939 CL         33.8080   34.4090   46.6640 Cl    360  CCL360     -0.0870
   1940 CL         32.5410   37.1050   47.3710 Cl    360  CCL360     -0.0870
   1941 HX         34.6750   36.3830   47.7390 H     360  CCL360      0.0806
   1942 C           5.7470   27.6370   26.9850 C.3   361  CCL361      0.1805
   1943 CL          5.2720   27.9600   28.6210 Cl    361  CCL361     -0.0870
   1944 CL          5.2160   28.8930   25.8720 Cl    361  CCL361     -0.0870
   1945 CL          5.3120   25.9960   26.4670 Cl    361  CCL361     -0.0870
   1946 HX          6.8270   27.6220   26.8790 H     361  CCL361      0.0806
   1947 C          -0.6120   35.8810   20.8550 C.3   362  CCL362      0.1805
   1948 CL          0.9110   35.6560   19.9290 Cl    362  CCL362     -0.0870
   1949 CL         -1.9510   34.8870   20.2410 Cl    362  CCL362     -0.0870
   1950 CL         -1.1030   37.6150   20.9920 Cl    362  CCL362     -0.0870
   1951 HX         -0.4650   35.5790   21.8880 H     362  CCL362      0.0806
   1952 C           1.2930   21.4830   19.7220 C.3   363  CCL363      0.1805
   1953 CL          0.3210   20.0390   19.9510 Cl    363  CCL363     -0.0870
   1954 CL          1.6930   21.6470   18.0520 Cl    363  CCL363     -0.0870
   1955 CL          2.7910   21.3860   20.6140 Cl    363  CCL363     -0.0870
   1956 HX          0.6810   22.3440   19.9730 H     363  CCL363      0.0806
   1957 C          31.0460   41.6280   38.2970 C.3   364  CCL364      0.1805
   1958 CL         30.8030   40.0700   37.5200 Cl    364  CCL364     -0.0870
   1959 CL         31.1370   42.9850   37.1700 Cl    364  CCL364     -0.0870
   1960 CL         32.5520   41.5120   39.2750 Cl    364  CCL364     -0.0870
   1961 HX         30.1950   41.8550   38.9330 H     364  CCL364      0.0806
   1962 C          37.3500   27.7780   35.1380 C.3   365  CCL365      0.1805
   1963 CL         38.9500   28.3730   34.6910 Cl    365  CCL365     -0.0870
   1964 CL         36.4620   28.9700   36.1310 Cl    365  CCL365     -0.0870
   1965 CL         37.5250   26.2050   35.8170 Cl    365  CCL365     -0.0870
   1966 HX         36.7570   27.7730   34.2280 H     365  CCL365      0.0806
   1967 C          37.7450    8.7410   27.6610 C.3   366  CCL366      0.1805
   1968 CL         36.5030    7.5120   27.5440 Cl    366  CCL366     -0.0870
   1969 CL         38.4870    9.0960   26.0630 Cl    366  CCL366     -0.0870
   1970 CL         38.8700    8.2030   28.8350 Cl    366  CCL366     -0.0870
   1971 HX         37.3730    9.6990   28.0120 H     366  CCL366      0.0806
   1972 C          11.6600   17.2670   24.6380 C.3   367  CCL367      0.1805
   1973 CL         12.8060   16.4290   25.7310 Cl    367  CCL367     -0.0870
   1974 CL         12.5380   18.3050   23.5790 Cl    367  CCL367     -0.0870
   1975 CL         10.3440   18.1630   25.4540 Cl    367  CCL367     -0.0870
   1976 HX         11.1100   16.5650   24.0180 H     367  CCL367      0.0806
   1977 C          30.9260   36.1600   16.3550 C.3   368  CCL368      0.1805
   1978 CL         31.9700   37.0980   17.3740 Cl    368  CCL368     -0.0870
   1979 CL         29.4030   36.9640   15.8540 Cl    368  CCL368     -0.0870
   1980 CL         30.5880   34.6800   17.2150 Cl    368  CCL368     -0.0870
   1981 HX         31.4880   35.8750   15.4700 H     368  CCL368      0.0806
   1982 C           7.8630    5.5890   34.1440 C.3   369  CCL369      0.1805
   1983 CL          7.7910    6.8490   35.2970 Cl    369  CCL369     -0.0870
   1984 CL          8.8000    4.1780   34.5790 Cl    369  CCL369     -0.0870
   1985 CL          8.2400    6.1910   32.5250 Cl    369  CCL369     -0.0870
   1986 HX          6.8270    5.2680   34.0940 H     369  CCL369      0.0806
   1987 C           1.0940   10.1050    5.2430 C.3   370  CCL370      0.1805
   1988 CL          0.7950   11.6080    4.4340 Cl    370  CCL370     -0.0870
   1989 CL          2.7180    9.5580    5.0400 Cl    370  CCL370     -0.0870
   1990 CL         -0.1160    8.9290    4.9090 Cl    370  CCL370     -0.0870
   1991 HX          1.0220   10.3870    6.2900 H     370  CCL370      0.0806
   1992 C          16.0620   24.1940   30.6030 C.3   371  CCL371      0.1805
   1993 CL         14.8450   22.9410   30.9320 Cl    371  CCL371     -0.0870
   1994 CL         17.5550   24.0710   31.5760 Cl    371  CCL371     -0.0870
   1995 CL         15.4960   25.8560   30.8330 Cl    371  CCL371     -0.0870
   1996 HX         16.4350   24.0790   29.5900 H     371  CCL371      0.0806
   1997 C          21.1610    7.4940   28.0000 C.3   372  CCL372      0.1805
   1998 CL         22.8950    7.5540   28.3940 Cl    372  CCL372     -0.0870
   1999 CL         20.9230    7.0220   26.3270 Cl    372  CCL372     -0.0870
   2000 CL         20.2470    8.9420   28.4640 Cl    372  CCL372     -0.0870
   2001 HX         20.6450    6.7170   28.5570 H     372  CCL372      0.0806
   2002 C          36.6040   29.3700   45.3280 C.3   373  CCL373      0.1805
   2003 CL         35.9440   30.6960   46.3770 Cl    373  CCL373     -0.0870
   2004 CL         38.2880   29.6530   44.9180 Cl    373  CCL373     -0.0870
   2005 CL         35.6870   29.0920   43.9140 Cl    373  CCL373     -0.0870
   2006 HX         36.6010   28.4760   45.9450 H     373  CCL373      0.0806
   2007 C          33.7850   21.9800   31.8130 C.3   374  CCL374      0.1805
   2008 CL         33.6010   20.6300   30.6450 Cl    374  CCL374     -0.0870
   2009 CL         34.8470   23.2370   31.0230 Cl    374  CCL374     -0.0870
   2010 CL         34.3520   21.3320   33.3560 Cl    374  CCL374     -0.0870
   2011 HX         32.8750   22.5130   32.0720 H     374  CCL374      0.0806
   2012 C          13.5440   -0.6040   10.3970 C.3   375  CCL375      0.1805
   2013 CL         13.5650    0.4590   11.8050 Cl    375  CCL375     -0.0870
   2014 CL         15.1090   -1.3270   10.0470 Cl    375  CCL375     -0.0870
   2015 CL         13.0000    0.4210    8.9810 Cl    375  CCL375     -0.0870
   2016 HX         12.8140   -1.3860   10.5900 H     375  CCL375      0.0806
   2017 C          22.6030   13.5100   34.9740 C.3   376  CCL376      0.1805
   2018 CL         21.8980   14.8260   35.8780 Cl    376  CCL376     -0.0870
   2019 CL         22.6070   12.0070   35.9280 Cl    376  CCL376     -0.0870
   2020 CL         24.1800   13.9990   34.3370 Cl    376  CCL376     -0.0870
   2021 HX         21.9290   13.2520   34.1620 H     376  CCL376      0.0806
   2022 C          38.1770    9.7530   40.4570 C.3   377  CCL377      0.1805
   2023 CL         39.0140    9.8480   42.0430 Cl    377  CCL377     -0.0870
   2024 CL         38.0830    8.0440   39.8930 Cl    377  CCL377     -0.0870
   2025 CL         39.0770   10.8480   39.3170 Cl    377  CCL377     -0.0870
   2026 HX         37.1370   10.0650   40.4940 H     377  CCL377      0.0806
   2027 C           9.3680    0.9140   38.5390 C.3   378  CCL378      0.1805
   2028 CL          7.6720    1.3240   38.4560 Cl    378  CCL378     -0.0870
   2029 CL         10.1600    1.9440   39.7640 Cl    378  CCL378     -0.0870
   2030 CL         10.1100    1.2460   36.9260 Cl    378  CCL378     -0.0870
   2031 HX          9.4800   -0.1100   38.8830 H     378  CCL378      0.0806
   2032 C           8.8510   41.1730   16.0960 C.3   379  CCL379      0.1805
   2033 CL          7.4530   41.6910   17.1020 Cl    379  CCL379     -0.0870
   2034 CL          8.3900   40.8640   14.3880 Cl    379  CCL379     -0.0870
   2035 CL          9.6630   39.8170   16.7860 Cl    379  CCL379     -0.0870
   2036 HX          9.5790   41.9760   16.1660 H     379  CCL379      0.0806
   2037 C          30.4930   22.7920   28.5990 C.3   380  CCL380      0.1805
   2038 CL         32.0920   23.1850   27.9370 Cl    380  CCL380     -0.0870
   2039 CL         29.2930   24.0160   28.1670 Cl    380  CCL380     -0.0870
   2040 CL         30.5500   22.7150   30.3620 Cl    380  CCL380     -0.0870
   2041 HX         30.2110   21.7760   28.3380 H     380  CCL380      0.0806
   2042 C           4.9520   33.3690   17.1060 C.3   381  CCL381      0.1805
   2043 CL          4.8980   34.6670   18.3790 Cl    381  CCL381     -0.0870
   2044 CL          5.7320   31.8650   17.7260 Cl    381  CCL381     -0.0870
   2045 CL          5.7620   33.9190   15.6530 Cl    381  CCL381     -0.0870
   2046 HX          3.9490   33.1190   16.7710 H     381  CCL381      0.0806
   2047 C          25.7920   40.7930   18.9740 C.3   382  CCL382      0.1805
   2048 CL         25.1520   39.1700   19.2900 Cl    382  CCL382     -0.0870
   2049 CL         24.4730   41.9700   18.7680 Cl    382  CCL382     -0.0870
   2050 CL         26.9150   40.8400   17.5540 Cl    382  CCL382     -0.0870
   2051 HX         26.3120   41.1480   19.8590 H     382  CCL382      0.0806
   2052 C          -9.5400   36.2180    8.8110 C.3   383  CCL383      0.1805
   2053 CL        -10.3420   34.6280    9.0580 Cl    383  CCL383     -0.0870
   2054 CL        -10.6190   37.3490    8.0010 Cl    383  CCL383     -0.0870
   2055 CL         -7.9400   36.0130    8.1240 Cl    383  CCL383     -0.0870
   2056 HX         -9.5030   36.5230    9.8530 H     383  CCL383      0.0806
   2057 C          15.9640   16.2250   37.0710 C.3   384  CCL384      0.1805
   2058 CL         15.3510   15.2740   35.7580 Cl    384  CCL384     -0.0870
   2059 CL         14.7260   16.2320   38.3970 Cl    384  CCL384     -0.0870
   2060 CL         16.5900   17.7670   36.3960 Cl    384  CCL384     -0.0870
   2061 HX         16.8910   15.7650   37.4020 H     384  CCL384      0.0806
   2062 C          26.5520   32.3140   43.1410 C.3   385  CCL385      0.1805
   2063 CL         24.9000   32.3040   42.7270 Cl    385  CCL385     -0.0870
   2064 CL         27.3290   30.8320   42.6170 Cl    385  CCL385     -0.0870
   2065 CL         26.7650   32.3750   44.9030 Cl    385  CCL385     -0.0870
   2066 HX         27.0900   33.1080   42.6320 H     385  CCL385      0.0806
   2067 C          18.2380    0.1050    4.6460 C.3   386  CCL386      0.1805
   2068 CL         19.7940    0.7760    5.3420 Cl    386  CCL386     -0.0870
   2069 CL         18.6020   -0.8560    3.2040 Cl    386  CCL386     -0.0870
   2070 CL         17.0790    1.4950    4.2940 Cl    386  CCL386     -0.0870
   2071 HX         17.6700   -0.4420    5.3920 H     386  CCL386      0.0806
   2072 C          23.0490   41.6480   27.4980 C.3   387  CCL387      0.1805
   2073 CL         21.6160   41.0670   28.2680 Cl    387  CCL387     -0.0870
   2074 CL         23.9330   40.4830   26.4990 Cl    387  CCL387     -0.0870
   2075 CL         24.0670   42.3740   28.7100 Cl    387  CCL387     -0.0870
   2076 HX         22.8000   42.4590   26.8200 H     387  CCL387      0.0806
   2077 C          48.3890    9.3400   43.0380 C.3   388  CCL388      0.1805
   2078 CL         46.7250    9.5870   42.4520 Cl    388  CCL388     -0.0870
   2079 CL         48.6670    7.6980   43.5940 Cl    388  CCL388     -0.0870
   2080 CL         48.7770   10.2770   44.4190 Cl    388  CCL388     -0.0870
   2081 HX         49.1110    9.4700   42.2360 H     388  CCL388      0.0806
   2082 C          11.9100   14.1040   48.4550 C.3   389  CCL389      0.1805
   2083 CL         12.4070   15.7390   48.7110 Cl    389  CCL389     -0.0870
   2084 CL         11.8450   13.6390   46.8320 Cl    389  CCL389     -0.0870
   2085 CL         10.2940   13.8510   49.1090 Cl    389  CCL389     -0.0870
   2086 HX         12.4710   13.4190   49.0830 H     389  CCL389      0.0806
   2087 C          36.3790   42.2250   32.9110 C.3   390  CCL390      0.1805
   2088 CL         37.3770   43.2160   31.8680 Cl    390  CCL390     -0.0870
   2089 CL         36.9260   40.5030   33.1020 Cl    390  CCL390     -0.0870
   2090 CL         34.6890   42.3650   32.5240 Cl    390  CCL390     -0.0870
   2091 HX         36.3240   42.6590   33.9060 H     390  CCL390      0.0806
   2092 C          47.0330    2.3080   42.0870 C.3   391  CCL391      0.1805
   2093 CL         46.3510    3.8420   42.3840 Cl    391  CCL391     -0.0870
   2094 CL         46.4400    1.2120   43.3940 Cl    391  CCL391     -0.0870
   2095 CL         48.7510    2.3570   42.1130 Cl    391  CCL391     -0.0870
   2096 HX         46.7190    2.0040   41.0930 H     391  CCL391      0.0806
   2097 C          16.0720   -3.3990   22.2460 C.3   392  CCL392      0.1805
   2098 CL         15.8520   -2.7510   23.8450 Cl    392  CCL392     -0.0870
   2099 CL         14.7470   -3.0040   21.1410 Cl    392  CCL392     -0.0870
   2100 CL         16.4780   -5.1030   22.2810 Cl    392  CCL392     -0.0870
   2101 HX         16.9060   -2.8670   21.7980 H     392  CCL392      0.0806
   2102 C           9.9440   36.5440   50.9330 C.3   393  CCL393      0.1805
   2103 CL          9.0290   37.2580   52.2920 Cl    393  CCL393     -0.0870
   2104 CL          8.9360   36.2950   49.5010 Cl    393  CCL393     -0.0870
   2105 CL         10.6780   34.9800   51.4940 Cl    393  CCL393     -0.0870
   2106 HX         10.8190   37.1430   50.6980 H     393  CCL393      0.0806
   2107 C          28.0190   14.3370   44.1620 C.3   394  CCL394      0.1805
   2108 CL         29.4320   13.3050   44.5360 Cl    394  CCL394     -0.0870
   2109 CL         27.8770   14.5540   42.4460 Cl    394  CCL394     -0.0870
   2110 CL         28.0770   15.8590   45.0060 Cl    394  CCL394     -0.0870
   2111 HX         27.1490   13.8180   44.5530 H     394  CCL394      0.0806
   2112 C          10.8220   18.4540   51.8570 C.3   395  CCL395      0.1805
   2113 CL         12.4100   18.7870   51.1440 Cl    395  CCL395     -0.0870
   2114 CL         10.3440   16.7560   51.7800 Cl    395  CCL395     -0.0870
   2115 CL          9.4320   19.3110   51.2240 Cl    395  CCL395     -0.0870
   2116 HX         10.8530   18.8320   52.8750 H     395  CCL395      0.0806
   2117 C          39.9090   12.2210   21.3080 C.3   396  CCL396      0.1805
   2118 CL         40.2810   13.4270   20.0250 Cl    396  CCL396     -0.0870
   2119 CL         40.8600   12.4930   22.8190 Cl    396  CCL396     -0.0870
   2120 CL         40.1540   10.5800   20.7450 Cl    396  CCL396     -0.0870
   2121 HX         38.8340   12.1510   21.4450 H     396  CCL396      0.0806
   2122 C          35.9230   10.3970   14.5570 C.3   397  CCL397      0.1805
   2123 CL         36.9830   10.9530   15.8860 Cl    397  CCL397     -0.0870
   2124 CL         35.1440   11.6940   13.6530 Cl    397  CCL397     -0.0870
   2125 CL         34.6630    9.3380   15.1490 Cl    397  CCL397     -0.0870
   2126 HX         36.5790    9.8610   13.8770 H     397  CCL397      0.0806
   2127 C          22.1210   14.2680   21.5710 C.3   398  CCL398      0.1805
   2128 CL         22.4310   15.2980   20.2920 Cl    398  CCL398     -0.0870
   2129 CL         23.2250   12.9150   21.6730 Cl    398  CCL398     -0.0870
   2130 CL         20.4310   13.7190   21.5930 Cl    398  CCL398     -0.0870
   2131 HX         22.3860   14.8720   22.4330 H     398  CCL398      0.0806
   2132 C          43.3040   12.7490   -5.6630 C.3   399  CCL399      0.1805
   2133 CL         44.4510   11.4250   -5.8580 Cl    399  CCL399     -0.0870
   2134 CL         43.5770   13.8590   -4.3090 Cl    399  CCL399     -0.0870
   2135 CL         41.6500   12.0620   -5.7810 Cl    399  CCL399     -0.0870
   2136 HX         43.4020   13.3020   -6.5920 H     399  CCL399      0.0806
   2137 C          19.2370    4.3020   42.5280 C.3   400  CCL400      0.1805
   2138 CL         19.9800    2.8190   41.9280 Cl    400  CCL400     -0.0870
   2139 CL         18.3820    5.2040   41.2150 Cl    400  CCL400     -0.0870
   2140 CL         20.4240    5.4120   43.2780 Cl    400  CCL400     -0.0870
   2141 HX         18.4090    3.9890   43.1580 H     400  CCL400      0.0806
   2142 C          19.1910   11.8230    9.9770 C.3   401  CCL401      0.1805
   2143 CL         19.0580   10.1030   10.1030 Cl    401  CCL401     -0.0870
   2144 CL         20.2780   12.3920   11.2790 Cl    401  CCL401     -0.0870
   2145 CL         17.5730   12.5430   10.0400 Cl    401  CCL401     -0.0870
   2146 HX         19.6950   12.0460    9.0410 H     401  CCL401      0.0806
   2147 C          18.4380   21.6710    1.8230 C.3   402  CCL402      0.1805
   2148 CL         18.2050   21.7870    0.0400 Cl    402  CCL402     -0.0870
   2149 CL         19.5590   20.2980    2.2490 Cl    402  CCL402     -0.0870
   2150 CL         16.9460   21.5470    2.6770 Cl    402  CCL402     -0.0870
   2151 HX         19.0000   22.5400    2.1530 H     402  CCL402      0.0806
   2152 C          29.0510   46.0940   10.6020 C.3   403  CCL403      0.1805
   2153 CL         27.4040   45.7850   10.1370 Cl    403  CCL403     -0.0870
   2154 CL         29.9690   45.9620    9.1050 Cl    403  CCL403     -0.0870
   2155 CL         29.6170   44.8990   11.8280 Cl    403  CCL403     -0.0870
   2156 HX         29.2020   47.0900   11.0060 H     403  CCL403      0.0806
   2157 C          44.5390   23.5180   42.5860 C.3   404  CCL404      0.1805
   2158 CL         45.7530   24.7040   43.1080 Cl    404  CCL404     -0.0870
   2159 CL         44.7100   23.3020   40.8290 Cl    404  CCL404     -0.0870
   2160 CL         42.9330   24.1830   42.8940 Cl    404  CCL404     -0.0870
   2161 HX         44.6850   22.6140   43.1690 H     404  CCL404      0.0806
   2162 C          44.1990    8.1070   40.1330 C.3   405  CCL405      0.1805
   2163 CL         45.2420    6.7110   40.3190 Cl    405  CCL405     -0.0870
   2164 CL         42.6250    7.6730   39.5610 Cl    405  CCL405     -0.0870
   2165 CL         44.8700    9.3870   39.1720 Cl    405  CCL405     -0.0870
   2166 HX         44.0810    8.3920   41.1740 H     405  CCL405      0.0806
   2167 C          32.5570   17.6360   44.6450 C.3   406  CCL406      0.1805
   2168 CL         34.2530   17.4860   45.0100 Cl    406  CCL406     -0.0870
   2169 CL         32.2920   18.1310   42.9510 Cl    406  CCL406     -0.0870
   2170 CL         31.7830   18.7150   45.8400 Cl    406  CCL406     -0.0870
   2171 HX         32.0950   16.6780   44.8650 H     406  CCL406      0.0806
   2172 C          14.7020   25.8510   25.9670 C.3   407  CCL407      0.1805
   2173 CL         15.5500   24.4970   25.3060 Cl    407  CCL407     -0.0870
   2174 CL         15.5900   27.3530   25.9340 Cl    407  CCL407     -0.0870
   2175 CL         14.2970   25.6330   27.6830 Cl    407  CCL407     -0.0870
   2176 HX         13.8130   26.0740   25.3840 H     407  CCL407      0.0806
   2177 C          17.2200   46.9260    4.9410 C.3   408  CCL408      0.1805
   2178 CL         16.5710   45.4840    5.8170 Cl    408  CCL408     -0.0870
   2179 CL         18.2270   47.7700    6.1220 Cl    408  CCL408     -0.0870
   2180 CL         15.9750   48.0160    4.2960 Cl    408  CCL408     -0.0870
   2181 HX         17.8850   46.6220    4.1380 H     408  CCL408      0.0806
   2182 C          37.1590   -1.3690   23.4560 C.3   409  CCL409      0.1805
   2183 CL         37.0340    0.0100   24.5050 Cl    409  CCL409     -0.0870
   2184 CL         38.8530   -1.7120   23.4140 Cl    409  CCL409     -0.0870
   2185 CL         36.4730   -1.1600   21.9180 Cl    409  CCL409     -0.0870
   2186 HX         36.6710   -2.2210   23.9190 H     409  CCL409      0.0806
   2187 C          14.5730   38.5410   48.6720 C.3   410  CCL410      0.1805
   2188 CL         15.0790   39.9500   47.5890 Cl    410  CCL410     -0.0870
   2189 CL         15.3310   38.7630   50.2510 Cl    410  CCL410     -0.0870
   2190 CL         15.0080   36.9190   48.0510 Cl    410  CCL410     -0.0870
   2191 HX         13.5150   38.5420   48.9170 H     410  CCL410      0.0806
   2192 C          39.7820    4.9290   24.4420 C.3   411  CCL411      0.1805
   2193 CL         40.5500    5.1920   25.9910 Cl    411  CCL411     -0.0870
   2194 CL         38.9840    3.3640   24.4390 Cl    411  CCL411     -0.0870
   2195 CL         40.9650    5.0860   23.0540 Cl    411  CCL411     -0.0870
   2196 HX         38.9450    5.5840   24.2180 H     411  CCL411      0.0806
   2197 C          35.7660   26.9520    6.4320 C.3   412  CCL412      0.1805
   2198 CL         34.4210   26.4210    7.5540 Cl    412  CCL412     -0.0870
   2199 CL         35.4300   28.3390    5.3290 Cl    412  CCL412     -0.0870
   2200 CL         36.3180   25.6450    5.4510 Cl    412  CCL412     -0.0870
   2201 HX         36.4940   27.3630    7.1250 H     412  CCL412      0.0806
   2202 C          34.9460   41.5410   47.0100 C.3   413  CCL413      0.1805
   2203 CL         33.8630   42.8090   47.3120 Cl    413  CCL413     -0.0870
   2204 CL         34.8680   41.0260   45.2790 Cl    413  CCL413     -0.0870
   2205 CL         34.6740   40.1510   48.0580 Cl    413  CCL413     -0.0870
   2206 HX         35.9320   41.8950   47.2940 H     413  CCL413      0.0806
   2207 C          29.4910   49.9010   15.4700 C.3   414  CCL414      0.1805
   2208 CL         31.2590   49.8150   15.5410 Cl    414  CCL414     -0.0870
   2209 CL         28.9860   51.5550   15.0810 Cl    414  CCL414     -0.0870
   2210 CL         28.7630   49.3560   17.0380 Cl    414  CCL414     -0.0870
   2211 HX         29.3010   49.2180   14.6470 H     414  CCL414      0.0806
   2212 C          29.8070   19.5180   33.7510 C.3   415  CCL415      0.1805
   2213 CL         29.6050   18.6160   35.2340 Cl    415  CCL415     -0.0870
   2214 CL         30.2980   18.3490   32.4820 Cl    415  CCL415     -0.0870
   2215 CL         30.8350   20.9190   33.9270 Cl    415  CCL415     -0.0870
   2216 HX         28.8060   19.9020   33.5840 H     415  CCL415      0.0806
   2217 C          26.1740   15.8270    8.6020 C.3   416  CCL416      0.1805
   2218 CL         24.9120   16.8640    7.7190 Cl    416  CCL416     -0.0870
   2219 CL         26.6510   14.3990    7.6790 Cl    416  CCL416     -0.0870
   2220 CL         25.7120   15.5710   10.2340 Cl    416  CCL416     -0.0870
   2221 HX         27.0460   16.4750    8.5910 H     416  CCL416      0.0806
   2222 C           7.4610   34.4490   45.7600 C.3   417  CCL417      0.1805
   2223 CL          8.6840   33.2160   45.7220 Cl    417  CCL417     -0.0870
   2224 CL          6.2950   34.0190   44.4720 Cl    417  CCL417     -0.0870
   2225 CL          8.1270   36.0800   45.5840 Cl    417  CCL417     -0.0870
   2226 HX          6.9090   34.5690   46.6880 H     417  CCL417      0.0806
   2227 C          32.4110   31.6160   21.5210 C.3   418  CCL418      0.1805
   2228 CL         32.1970   31.2150   23.1750 Cl    418  CCL418     -0.0870
   2229 CL         31.5250   30.5950   20.4420 Cl    418  CCL418     -0.0870
   2230 CL         34.1580   31.6110   20.9710 Cl    418  CCL418     -0.0870
   2231 HX         32.1150   32.6510   21.3760 H     418  CCL418      0.0806
   2232 C          28.0720   23.6290    4.0830 C.3   419  CCL419      0.1805
   2233 CL         27.4630   25.2780    3.7540 Cl    419  CCL419     -0.0870
   2234 CL         29.7760   23.4330    3.8270 Cl    419  CCL419     -0.0870
   2235 CL         27.1410   22.3790    3.2910 Cl    419  CCL419     -0.0870
   2236 HX         28.0280   23.3610    5.1350 H     419  CCL419      0.0806
   2237 C           1.8290    2.7550   19.9540 C.3   420  CCL420      0.1805
   2238 CL          0.7420    3.7100   20.9800 Cl    420  CCL420     -0.0870
   2239 CL          2.9030    1.7390   20.9230 Cl    420  CCL420     -0.0870
   2240 CL          2.8630    3.8000   19.0840 Cl    420  CCL420     -0.0870
   2241 HX          1.3330    2.0790   19.2630 H     420  CCL420      0.0806
   2242 C           9.4430   -0.2080   43.1570 C.3   421  CCL421      0.1805
   2243 CL          9.1050   -1.0430   44.6410 Cl    421  CCL421     -0.0870
   2244 CL         10.8970   -0.9060   42.4170 Cl    421  CCL421     -0.0870
   2245 CL          9.6590    1.4770   43.3830 Cl    421  CCL421     -0.0870
   2246 HX          8.6200   -0.4370   42.4860 H     421  CCL421      0.0806
   2247 C           2.8870    8.1560   23.3890 C.3   422  CCL422      0.1805
   2248 CL          3.4580    8.0130   25.0880 Cl    422  CCL422     -0.0870
   2249 CL          3.0960    6.6960   22.5040 Cl    422  CCL422     -0.0870
   2250 CL          3.7350    9.4670   22.4680 Cl    422  CCL422     -0.0870
   2251 HX          1.8110    8.2840   23.3110 H     422  CCL422      0.0806
   2252 C          42.0540   19.1110   15.1220 C.3   423  CCL423      0.1805
   2253 CL         41.6110   20.7430   14.7430 Cl    423  CCL423     -0.0870
   2254 CL         42.2620   18.1550   13.5810 Cl    423  CCL423     -0.0870
   2255 CL         40.8910   18.3800   16.1700 Cl    423  CCL423     -0.0870
   2256 HX         43.0660   19.0310   15.5070 H     423  CCL423      0.0806
   2257 C          22.3500    5.9010   12.6130 C.3   424  CCL424      0.1805
   2258 CL         22.5820    6.1180   10.8020 Cl    424  CCL424     -0.0870
   2259 CL         23.2150    4.4720   13.1240 Cl    424  CCL424     -0.0870
   2260 CL         20.6710    5.8330   13.2350 Cl    424  CCL424     -0.0870
   2261 HX         22.8400    6.7690   13.0430 H     424  CCL424      0.0806
   2262 C          25.6990   44.7080    5.7530 C.3   425  CCL425      0.1805
   2263 CL         26.9260   44.4010    7.0070 Cl    425  CCL425     -0.0870
   2264 CL         26.1970   44.4850    4.1320 Cl    425  CCL425     -0.0870
   2265 CL         25.2740   46.4030    6.0070 Cl    425  CCL425     -0.0870
   2266 HX         24.8320   44.1030    6.0020 H     425  CCL425      0.0806
   2267 C          15.1800   29.8220   49.6910 C.3   426  CCL426      0.1805
   2268 CL         16.5870   30.4720   50.5120 Cl    426  CCL426     -0.0870
   2269 CL         13.5760   30.4740   50.2610 Cl    426  CCL426     -0.0870
   2270 CL         15.1870   28.0540   49.9390 Cl    426  CCL426     -0.0870
   2271 HX         15.2420   30.1810   48.6680 H     426  CCL426      0.0806
   2272 C           2.3150   13.0170   29.7080 C.3   427  CCL427      0.1805
   2273 CL          0.8150   13.0220   30.6310 Cl    427  CCL427     -0.0870
   2274 CL          3.6610   12.3800   30.5960 Cl    427  CCL427     -0.0870
   2275 CL          2.5350   14.5260   28.8440 Cl    427  CCL427     -0.0870
   2276 HX          2.2140   12.2830   28.9140 H     427  CCL427      0.0806
   2277 C           9.5110   -5.8910   40.2610 C.3   428  CCL428      0.1805
   2278 CL          9.9070   -4.9180   41.6720 Cl    428  CCL428     -0.0870
   2279 CL         10.8070   -6.0150   39.0900 Cl    428  CCL428     -0.0870
   2280 CL          8.0400   -5.1590   39.5670 Cl    428  CCL428     -0.0870
   2281 HX          9.0930   -6.8450   40.5680 H     428  CCL428      0.0806
   2282 C          35.1360    0.6540    8.0380 C.3   429  CCL429      0.1805
   2283 CL         36.4780    1.0370    9.1410 Cl    429  CCL429     -0.0870
   2284 CL         34.0260   -0.5690    8.6400 Cl    429  CCL429     -0.0870
   2285 CL         35.6820    0.3290    6.4060 Cl    429  CCL429     -0.0870
   2286 HX         34.5500    1.5640    7.9560 H     429  CCL429      0.0806
   2287 C          27.6290   35.9960   20.5290 C.3   430  CCL430      0.1805
   2288 CL         25.8920   35.9850   20.6210 Cl    430  CCL430     -0.0870
   2289 CL         28.2740   37.4540   19.8730 Cl    430  CCL430     -0.0870
   2290 CL         28.1240   34.5890   19.6350 Cl    430  CCL430     -0.0870
   2291 HX         28.0920   35.8870   21.5050 H     430  CCL430      0.0806
   2292 C           9.3470   -2.6000    2.5840 C.3   431  CCL431      0.1805
   2293 CL          8.7310   -1.0010    2.1770 Cl    431  CCL431     -0.0870
   2294 CL          8.5750   -3.0830    4.1270 Cl    431  CCL431     -0.0870
   2295 CL         11.0860   -2.6150    2.6500 Cl    431  CCL431     -0.0870
   2296 HX          9.0660   -3.2890    1.7920 H     431  CCL431      0.0806
   2297 C          11.1280   34.4550   22.9820 C.3   432  CCL432      0.1805
   2298 CL         12.0310   34.9560   21.5510 Cl    432  CCL432     -0.0870
   2299 CL          9.5780   33.7030   22.6220 Cl    432  CCL432     -0.0870
   2300 CL         11.0390   35.7310   24.1850 Cl    432  CCL432     -0.0870
   2301 HX         11.7420   33.6850   23.4390 H     432  CCL432      0.0806
   2302 C          31.1740    8.1100   38.4670 C.3   433  CCL433      0.1805
   2303 CL         30.7940    7.7000   40.0990 Cl    433  CCL433     -0.0870
   2304 CL         32.7300    7.3730   38.0070 Cl    433  CCL433     -0.0870
   2305 CL         31.1330    9.8340   38.0730 Cl    433  CCL433     -0.0870
   2306 HX         30.4450    7.6440   37.8100 H     433  CCL433      0.0806
   2307 C           0.8940   -1.7490    5.1990 C.3   434  CCL434      0.1805
   2308 CL          0.0550   -2.8020    6.3290 Cl    434  CCL434     -0.0870
   2309 CL          0.0780   -0.1390    4.9830 Cl    434  CCL434     -0.0870
   2310 CL          0.9390   -2.5220    3.5340 Cl    434  CCL434     -0.0870
   2311 HX          1.9380   -1.5900    5.4500 H     434  CCL434      0.0806
   2312 C           9.7850   -5.9980   48.0680 C.3   435  CCL435      0.1805
   2313 CL          8.2420   -5.7340   47.2530 Cl    435  CCL435     -0.0870
   2314 CL         10.8830   -5.9760   46.6640 Cl    435  CCL435     -0.0870
   2315 CL          9.8990   -7.5860   48.8750 Cl    435  CCL435     -0.0870
   2316 HX         10.0960   -5.2630   48.8040 H     435  CCL435      0.0806
   2317 C          20.6840   30.2860   50.0110 C.3   436  CCL436      0.1805
   2318 CL         20.1110   28.9600   51.0000 Cl    436  CCL436     -0.0870
   2319 CL         20.4870   31.6600   51.0020 Cl    436  CCL436     -0.0870
   2320 CL         19.8890   30.4560   48.4780 Cl    436  CCL436     -0.0870
   2321 HX         21.7360   30.1570   49.7740 H     436  CCL436      0.0806
   2322 C          -8.2690   34.4720   23.6470 C.3   437  CCL437      0.1805
   2323 CL         -8.4520   35.9500   24.4340 Cl    437  CCL437     -0.0870
   2324 CL         -7.0010   34.2920   22.4260 Cl    437  CCL437     -0.0870
   2325 CL         -9.7430   33.9400   22.9590 Cl    437  CCL437     -0.0870
   2326 HX         -8.0950   33.7700   24.4580 H     437  CCL437      0.0806
   2327 C          31.2390    7.2940   20.9570 C.3   438  CCL438      0.1805
   2328 CL         32.8350    8.0070   20.7380 Cl    438  CCL438     -0.0870
   2329 CL         31.2620    5.8400   21.8570 Cl    438  CCL438     -0.0870
   2330 CL         30.4170    7.0380   19.5210 Cl    438  CCL438     -0.0870
   2331 HX         30.6830    7.9730   21.5970 H     438  CCL438      0.0806
   2332 C          23.1420   -0.2220   42.2320 C.3   439  CCL439      0.1805
   2333 CL         23.4390    1.0200   41.0350 Cl    439  CCL439     -0.0870
   2334 CL         23.8160   -1.7290   41.7180 Cl    439  CCL439     -0.0870
   2335 CL         21.4280   -0.4670   42.6440 Cl    439  CCL439     -0.0870
   2336 HX         23.6420    0.1510   43.1200 H     439  CCL439      0.0806
   2337 C          20.4890    0.8210   34.0340 C.3   440  CCL440      0.1805
   2338 CL         20.2880    2.5910   34.1070 Cl    440  CCL440     -0.0870
   2339 CL         22.0410    0.2210   34.5910 Cl    440  CCL440     -0.0870
   2340 CL         20.2740    0.3630   32.2830 Cl    440  CCL440     -0.0870
   2341 HX         19.7220    0.2820   34.5820 H     440  CCL440      0.0806
   2342 C           1.3590   15.7420   49.6190 C.3   441  CCL441      0.1805
   2343 CL          2.8890   15.3760   48.7300 Cl    441  CCL441     -0.0870
   2344 CL          0.1820   14.6230   48.9620 Cl    441  CCL441     -0.0870
   2345 CL          0.8140   17.4030   49.4450 Cl    441  CCL441     -0.0870
   2346 HX          1.5210   15.5740   50.6800 H     441  CCL441      0.0806
   2347 C           9.7710   15.7370   10.9870 C.3   442  CCL442      0.1805
   2348 CL          8.7310   15.9360   12.4090 Cl    442  CCL442     -0.0870
   2349 CL         10.5670   17.2620   10.4780 Cl    442  CCL442     -0.0870
   2350 CL          8.9140   15.1020    9.6160 Cl    442  CCL442     -0.0870
   2351 HX         10.4610   14.9400   11.2510 H     442  CCL442      0.0806
   2352 C           3.0080   15.8980   34.9620 C.3   443  CCL443      0.1805
   2353 CL          1.9110   15.1670   36.1170 Cl    443  CCL443     -0.0870
   2354 CL          4.1510   14.7540   34.3540 Cl    443  CCL443     -0.0870
   2355 CL          3.8300   17.2980   35.6010 Cl    443  CCL443     -0.0870
   2356 HX          2.4870   16.2380   34.0730 H     443  CCL443      0.0806
   2357 C           5.9910   35.3150   22.5790 C.3   444  CCL444      0.1805
   2358 CL          6.3340   33.7810   23.2770 Cl    444  CCL444     -0.0870
   2359 CL          7.2640   36.4770   22.6570 Cl    444  CCL444     -0.0870
   2360 CL          4.5060   36.0120   23.1070 Cl    444  CCL444     -0.0870
   2361 HX          5.8420   35.1880   21.5110 H     444  CCL444      0.0806
   2362 C          41.4160   11.7310   -0.7610 C.3   445  CCL445      0.1805
   2363 CL         40.8430   10.2680    0.0690 Cl    445  CCL445     -0.0870
   2364 CL         40.6670   13.1450    0.0230 Cl    445  CCL445     -0.0870
   2365 CL         41.0820   11.8640   -2.5510 Cl    445  CCL445     -0.0870
   2366 HX         42.4830   11.7680   -0.5630 H     445  CCL445      0.0806
   2367 C          17.5120   -6.7540   45.7210 C.3   446  CCL446      0.1805
   2368 CL         18.1520   -8.4160   45.5760 Cl    446  CCL446     -0.0870
   2369 CL         17.4680   -6.2440   47.3990 Cl    446  CCL446     -0.0870
   2370 CL         15.9500   -6.7860   44.9990 Cl    446  CCL446     -0.0870
   2371 HX         18.0900   -6.0960   45.0790 H     446  CCL446      0.0806
   2372 C          24.7270   10.0950    8.8850 C.3   447  CCL447      0.1805
   2373 CL         23.3180   11.0400    8.5900 Cl    447  CCL447     -0.0870
   2374 CL         26.0540   11.1270    9.4790 Cl    447  CCL447     -0.0870
   2375 CL         25.2080    9.2860    7.3840 Cl    447  CCL447     -0.0870
   2376 HX         24.4050    9.3630    9.6200 H     447  CCL447      0.0806
   2377 C           7.7660   23.6120   22.4580 C.3   448  CCL448      0.1805
   2378 CL          8.5420   22.5460   23.6810 Cl    448  CCL448     -0.0870
   2379 CL          6.2730   22.9540   21.7480 Cl    448  CCL448     -0.0870
   2380 CL          8.9330   24.1050   21.1920 Cl    448  CCL448     -0.0870
   2381 HX          7.4560   24.5490   22.9120 H     448  CCL448      0.0806
   2382 C          11.3550   43.6620   13.2280 C.3   449  CCL449      0.1805
   2383 CL         10.9090   43.4440   11.4840 Cl    449  CCL449     -0.0870
   2384 CL         11.9220   42.1030   13.8960 Cl    449  CCL449     -0.0870
   2385 CL          9.9860   44.2140   14.1840 Cl    449  CCL449     -0.0870
   2386 HX         12.1440   44.4030   13.3160 H     449  CCL449      0.0806
   2387 C          37.0470    3.7680    1.1380 C.3   450  CCL450      0.1805
   2388 CL         38.6590    4.1600    1.7130 Cl    450  CCL450     -0.0870
   2389 CL         36.5510    4.8810   -0.1790 Cl    450  CCL450     -0.0870
   2390 CL         35.7100    3.4390    2.3500 Cl    450  CCL450     -0.0870
   2391 HX         37.3180    2.8810    0.5730 H     450  CCL450      0.0806
   2392 C           7.6450   15.0240   44.3490 C.3   451  CCL451      0.1805
   2393 CL          7.7280   13.3430   43.8880 Cl    451  CCL451     -0.0870
   2394 CL          8.6790   15.3790   45.7020 Cl    451  CCL451     -0.0870
   2395 CL          5.9670   15.2900   44.5630 Cl    451  CCL451     -0.0870
   2396 HX          7.8850   15.6530   43.4970 H     451  CCL451      0.0806
   2397 C          34.7390   -0.4370   14.1040 C.3   452  CCL452      0.1805
   2398 CL         35.6430    0.4480   12.7830 Cl    452  CCL452     -0.0870
   2399 CL         33.3010    0.4330   14.5800 Cl    452  CCL452     -0.0870
   2400 CL         35.8100   -0.8120   15.4830 Cl    452  CCL452     -0.0870
   2401 HX         34.5070   -1.4310   13.7340 H     452  CCL452      0.0806
   2402 C          28.9820   11.1290   32.8200 C.3   453  CCL453      0.1805
   2403 CL         29.1740    9.3900   32.7510 Cl    453  CCL453     -0.0870
   2404 CL         30.4680   12.0770   32.7620 Cl    453  CCL453     -0.0870
   2405 CL         28.0380   11.5680   34.2520 Cl    453  CCL453     -0.0870
   2406 HX         28.4090   11.4510   31.9550 H     453  CCL453      0.0806
   2407 C          30.8280   -0.5340   22.4530 C.3   454  CCL454      0.1805
   2408 CL         32.4630   -0.0280   22.1560 Cl    454  CCL454     -0.0870
   2409 CL         30.0940   -1.4380   21.0710 Cl    454  CCL454     -0.0870
   2410 CL         29.8100    0.7470   23.0220 Cl    454  CCL454     -0.0870
   2411 HX         30.9490   -1.2070   23.2970 H     454  CCL454      0.0806
   2412 C          25.8060   41.7120   39.9260 C.3   455  CCL455      0.1805
   2413 CL         24.8420   43.1370   39.5270 Cl    455  CCL455     -0.0870
   2414 CL         27.3510   42.2190   40.5140 Cl    455  CCL455     -0.0870
   2415 CL         26.1100   40.9170   38.3360 Cl    455  CCL455     -0.0870
   2416 HX         25.2140   41.1240   40.6210 H     455  CCL455      0.0806
   2417 C          24.1510    5.0710   42.7380 C.3   456  CCL456      0.1805
   2418 CL         24.6050    5.3150   44.4820 Cl    456  CCL456     -0.0870
   2419 CL         25.4020    3.9290   42.1440 Cl    456  CCL456     -0.0870
   2420 CL         24.0530    6.6220   41.8050 Cl    456  CCL456     -0.0870
   2421 HX         23.1540    4.6510   42.6430 H     456  CCL456      0.0806
   2422 C          31.2360   39.2450   42.0160 C.3   457  CCL457      0.1805
   2423 CL         31.9410   38.2050   43.2970 Cl    457  CCL457     -0.0870
   2424 CL         29.5420   39.5960   42.3260 Cl    457  CCL457     -0.0870
   2425 CL         31.6140   38.5500   40.4510 Cl    457  CCL457     -0.0870
   2426 HX         31.8170   40.1460   42.1900 H     457  CCL457      0.0806
   2427 C          40.9310   13.3790   10.7440 C.3   458  CCL458      0.1805
   2428 CL         40.4950   13.2700    9.1020 Cl    458  CCL458     -0.0870
   2429 CL         40.6100   11.7120   11.3500 Cl    458  CCL458     -0.0870
   2430 CL         40.2190   14.5940   11.7140 Cl    458  CCL458     -0.0870
   2431 HX         42.0060   13.5170   10.6840 H     458  CCL458      0.0806
   2432 C           7.3770   25.8760   12.6830 C.3   459  CCL459      0.1805
   2433 CL          6.1990   27.0980   12.2720 Cl    459  CCL459     -0.0870
   2434 CL          9.0600   26.3400   12.4050 Cl    459  CCL459     -0.0870
   2435 CL          7.0240   24.3550   11.7450 Cl    459  CCL459     -0.0870
   2436 HX          7.3280   25.6470   13.7430 H     459  CCL459      0.0806
   2437 C           9.7480   -2.0150   33.5110 C.3   460  CCL460      0.1805
   2438 CL         10.0530   -1.7800   31.7830 Cl    460  CCL460     -0.0870
   2439 CL         10.5390   -0.7360   34.3500 Cl    460  CCL460     -0.0870
   2440 CL         10.2080   -3.6950   34.0220 Cl    460  CCL460     -0.0870
   2441 HX          8.6940   -1.7860   33.6430 H     460  CCL460      0.0806
   2442 C          37.8580   26.0420   22.5940 C.3   461  CCL461      0.1805
   2443 CL         36.9680   26.4870   21.1760 Cl    461  CCL461     -0.0870
   2444 CL         39.1370   24.8130   22.2510 Cl    461  CCL461     -0.0870
   2445 CL         36.7660   25.5700   23.8980 Cl    461  CCL461     -0.0870
   2446 HX         38.3850   26.8660   23.0660 H     461  CCL461      0.0806
   2447 C          23.0440   28.2440   13.9920 C.3   462  CCL462      0.1805
   2448 CL         22.8470   28.1850   12.2320 Cl    462  CCL462     -0.0870
   2449 CL         22.3820   29.7980   14.5280 Cl    462  CCL462     -0.0870
   2450 CL         24.7270   28.0340   14.5390 Cl    462  CCL462     -0.0870
   2451 HX         22.3980   27.4960   14.4440 H     462  CCL462      0.0806
   2452 C          32.0770   30.2080   16.2560 C.3   463  CCL463      0.1805
   2453 CL         31.6570   28.8850   17.4130 Cl    463  CCL463     -0.0870
   2454 CL         33.2200   29.7510   14.9720 Cl    463  CCL463     -0.0870
   2455 CL         32.6970   31.5560   17.1840 Cl    463  CCL463     -0.0870
   2456 HX         31.2160   30.6390   15.7540 H     463  CCL463      0.0806
   2457 C           5.7900   13.8660   10.7640 C.3   464  CCL464      0.1805
   2458 CL          4.8850   12.5350   10.1550 Cl    464  CCL464     -0.0870
   2459 CL          5.3540   14.3010   12.3730 Cl    464  CCL464     -0.0870
   2460 CL          5.6830   15.1110    9.6380 Cl    464  CCL464     -0.0870
   2461 HX          6.8310   13.5590   10.7840 H     464  CCL464      0.0806
   2462 C          30.2020    9.1110   11.5740 C.3   465  CCL465      0.1805
   2463 CL         28.5920    8.5380   11.2970 Cl    465  CCL465     -0.0870
   2464 CL         30.3150    9.3570   13.3350 Cl    465  CCL465     -0.0870
   2465 CL         30.5170   10.5880   10.7710 Cl    465  CCL465     -0.0870
   2466 HX         30.9860    8.4070   11.3100 H     465  CCL465      0.0806
   2467 C          39.5210   22.0750   -4.1820 C.3   466  CCL466      0.1805
   2468 CL         39.3620   23.8050   -4.4990 Cl    466  CCL466     -0.0870
   2469 CL         41.2220   21.6090   -4.2480 Cl    466  CCL466     -0.0870
   2470 CL         38.6240   21.1140   -5.3840 Cl    466  CCL466     -0.0870
   2471 HX         39.1030   21.8080   -3.2160 H     466  CCL466      0.0806
   2472 C           3.6610   -4.5360    7.2850 C.3   467  CCL467      0.1805
   2473 CL          2.8380   -4.7080    5.6940 Cl    467  CCL467     -0.0870
   2474 CL          3.2410   -2.9620    7.9760 Cl    467  CCL467     -0.0870
   2475 CL          5.3680   -4.4950    6.9550 Cl    467  CCL467     -0.0870
   2476 HX          3.4920   -5.4090    7.9070 H     467  CCL467      0.0806
   2477 C          45.3330   16.4680   35.0440 C.3   468  CCL468      0.1805
   2478 CL         45.2240   18.3010   34.9140 Cl    468  CCL468     -0.0870
   2479 CL         46.9090   15.9180   34.4880 Cl    468  CCL468     -0.0870
   2480 CL         44.0100   15.6320   34.2270 Cl    468  CCL468     -0.0870
   2481 HX         45.3370   16.2640   36.1100 H     468  CCL468      0.0806
   2482 C          29.8570   -3.9710   34.0890 C.3   469  CCL469      0.1805
   2483 CL         28.2050   -4.0300   33.6090 Cl    469  CCL469     -0.0870
   2484 CL         30.1790   -2.3700   34.7130 Cl    469  CCL469     -0.0870
   2485 CL         30.9440   -4.3370   32.6540 Cl    469  CCL469     -0.0870
   2486 HX         30.0250   -4.7500   34.8260 H     469  CCL469      0.0806
   2487 C          46.1750   11.1860   17.0540 C.3   470  CCL470      0.1805
   2488 CL         46.5510   11.8220   15.4200 Cl    470  CCL470     -0.0870
   2489 CL         46.1210    9.4020   17.0860 Cl    470  CCL470     -0.0870
   2490 CL         44.8170   11.9510   17.6970 Cl    470  CCL470     -0.0870
   2491 HX         46.9640   11.5060   17.7290 H     470  CCL470      0.0806
   2492 C          -4.6910   29.4180   31.7680 C.3   471  CCL471      0.1805
   2493 CL         -6.4310   29.6250   31.9920 Cl    471  CCL471     -0.0870
   2494 CL         -3.9360   30.9530   31.4750 Cl    471  CCL471     -0.0870
   2495 CL         -4.4620   28.2620   30.4780 Cl    471  CCL471     -0.0870
   2496 HX         -4.2420   29.0500   32.6860 H     471  CCL471      0.0806
   2497 C          40.6370   15.1600   44.2370 C.3   472  CCL472      0.1805
   2498 CL         41.3770   15.8720   45.6130 Cl    472  CCL472     -0.0870
   2499 CL         39.2980   14.1900   44.6990 Cl    472  CCL472     -0.0870
   2500 CL         41.7380   14.1310   43.3410 Cl    472  CCL472     -0.0870
   2501 HX         40.2850   15.9100   43.5340 H     472  CCL472      0.0806
   2502 C          10.0740   27.5180   31.3280 C.3   473  CCL473      0.1805
   2503 CL         11.1470   27.4290   29.9530 Cl    473  CCL473     -0.0870
   2504 CL         10.8800   27.4260   32.8330 Cl    473  CCL473     -0.0870
   2505 CL          8.7800   26.2990   31.2280 Cl    473  CCL473     -0.0870
   2506 HX          9.7670   28.5600   31.3050 H     473  CCL473      0.0806
   2507 C          31.6910   -2.2150   45.9170 C.3   474  CCL474      0.1805
   2508 CL         33.1000   -3.2930   45.6660 Cl    474  CCL474     -0.0870
   2509 CL         30.3150   -2.7530   45.0030 Cl    474  CCL474     -0.0870
   2510 CL         32.1420   -0.5260   45.4860 Cl    474  CCL474     -0.0870
   2511 HX         31.4770   -2.1600   46.9810 H     474  CCL474      0.0806
   2512 C          22.5230   14.5840   15.7320 C.3   475  CCL475      0.1805
   2513 CL         21.5170   13.7970   16.9680 Cl    475  CCL475     -0.0870
   2514 CL         22.1900   13.9870   14.1340 Cl    475  CCL475     -0.0870
   2515 CL         24.2430   14.3700   16.2840 Cl    475  CCL475     -0.0870
   2516 HX         22.2810   15.6430   15.7180 H     475  CCL475      0.0806
   2517 C          12.1530   11.0140    6.5400 C.3   476  CCL476      0.1805
   2518 CL         13.0680   11.3260    5.0100 Cl    476  CCL476     -0.0870
   2519 CL         11.7760    9.3390    6.9100 Cl    476  CCL476     -0.0870
   2520 CL         10.6580   11.9590    6.4470 Cl    476  CCL476     -0.0870
   2521 HX         12.7180   11.5010    7.3300 H     476  CCL476      0.0806
   2522 C          25.4410   35.6880   27.7810 C.3   477  CCL477      0.1805
   2523 CL         26.7720   34.5060   27.9730 Cl    477  CCL477     -0.0870
   2524 CL         25.9000   37.1150   26.8960 Cl    477  CCL477     -0.0870
   2525 CL         24.5750   36.1060   29.2450 Cl    477  CCL477     -0.0870
   2526 HX         24.7650   35.0890   27.1780 H     477  CCL477      0.0806
   2527 C           1.2460   11.4710   26.2390 C.3   478  CCL478      0.1805
   2528 CL          0.1320   12.8840   26.1510 Cl    478  CCL478     -0.0870
   2529 CL          2.5440   11.7000   25.0630 Cl    478  CCL478     -0.0870
   2530 CL          0.4610    9.8750   25.9260 Cl    478  CCL478     -0.0870
   2531 HX          1.6630   11.4010   27.2390 H     478  CCL478      0.0806
   2532 C          42.2580   34.6510   33.3000 C.3   479  CCL479      0.1805
   2533 CL         41.0810   34.0730   32.1860 Cl    479  CCL479     -0.0870
   2534 CL         42.3120   36.5350   33.3370 Cl    479  CCL479     -0.0870
   2535 CL         43.8830   34.0230   32.9750 Cl    479  CCL479     -0.0870
   2536 HX         41.9810   34.3710   34.3120 H     479  CCL479      0.0806
   2537 C          -1.8490   12.2460   23.2260 C.3   480  CCL480      0.1805
   2538 CL         -0.3010   12.2000   22.5100 Cl    480  CCL480     -0.0870
   2539 CL         -3.0400   11.7940   21.9850 Cl    480  CCL480     -0.0870
   2540 CL         -2.0840   13.8490   23.7940 Cl    480  CCL480     -0.0870
   2541 HX         -1.9900   11.5100   24.0120 H     480  CCL480      0.0806
   2542 C          15.6160    5.6470   20.5160 C.3   481  CCL481      0.1805
   2543 CL         16.7340    6.8690   21.1250 Cl    481  CCL481     -0.0870
   2544 CL         16.4590    4.7190   19.2410 Cl    481  CCL481     -0.0870
   2545 CL         14.1390    6.2760   20.0340 Cl    481  CCL481     -0.0870
   2546 HX         15.4490    5.0710   21.4220 H     481  CCL481      0.0806
   2547 C          26.5730   -4.9430   42.3780 C.3   482  CCL482      0.1805
   2548 CL         27.9950   -5.9030   42.7090 Cl    482  CCL482     -0.0870
   2549 CL         26.6020   -3.4580   43.2960 Cl    482  CCL482     -0.0870
   2550 CL         25.1820   -5.9850   42.6680 Cl    482  CCL482     -0.0870
   2551 HX         26.6670   -4.6920   41.3250 H     482  CCL482      0.0806
   2552 C          28.8410   41.5620   12.1430 C.3   483  CCL483      0.1805
   2553 CL         29.8880   40.1270   11.9110 Cl    483  CCL483     -0.0870
   2554 CL         27.7000   41.3590   13.5340 Cl    483  CCL483     -0.0870
   2555 CL         28.1040   41.8570   10.5570 Cl    483  CCL483     -0.0870
   2556 HX         29.5210   42.3530   12.4460 H     483  CCL483      0.0806
   2557 C          17.2720   29.7260   28.1190 C.3   484  CCL484      0.1805
   2558 CL         16.0000   30.3690   29.2640 Cl    484  CCL484     -0.0870
   2559 CL         18.7540   29.9130   28.8330 Cl    484  CCL484     -0.0870
   2560 CL         17.2250   30.5580   26.5570 Cl    484  CCL484     -0.0870
   2561 HX         17.0850   28.6650   27.9820 H     484  CCL484      0.0806
   2562 C          37.2910   47.5920   43.3370 C.3   485  CCL485      0.1805
   2563 CL         36.5380   47.5800   44.9540 Cl    485  CCL485     -0.0870
   2564 CL         38.4600   46.2990   43.2730 Cl    485  CCL485     -0.0870
   2565 CL         38.2050   49.0490   42.9330 Cl    485  CCL485     -0.0870
   2566 HX         36.5300   47.4060   42.5850 H     485  CCL485      0.0806
   2567 C          -1.7920   28.6350   10.3000 C.3   486  CCL486      0.1805
   2568 CL         -0.7720   27.2360   10.6420 Cl    486  CCL486     -0.0870
   2569 CL         -0.8650   30.1270   10.5640 Cl    486  CCL486     -0.0870
   2570 CL         -3.2180   28.7090   11.3350 Cl    486  CCL486     -0.0870
   2571 HX         -2.1050   28.6250    9.2600 H     486  CCL486      0.0806
   2572 C          42.0850   22.5490    2.7770 C.3   487  CCL487      0.1805
   2573 CL         42.2930   24.0860    1.9780 Cl    487  CCL487     -0.0870
   2574 CL         43.3460   22.1790    3.8980 Cl    487  CCL487     -0.0870
   2575 CL         42.0650   21.3430    1.4810 Cl    487  CCL487     -0.0870
   2576 HX         41.1650   22.4880    3.3510 H     487  CCL487      0.0806
   2577 C          33.5670    3.8320   26.0270 C.3   488  CCL488      0.1805
   2578 CL         34.3340    2.3040   25.6700 Cl    488  CCL488     -0.0870
   2579 CL         32.9260    4.6470   24.5800 Cl    488  CCL488     -0.0870
   2580 CL         34.6980    4.9810   26.7780 Cl    488  CCL488     -0.0870
   2581 HX         32.7270    3.5410   26.6500 H     488  CCL488      0.0806
   2582 C          36.3510   42.5850   15.0730 C.3   489  CCL489      0.1805
   2583 CL         36.0410   41.6360   16.5550 Cl    489  CCL489     -0.0870
   2584 CL         35.8380   41.6610   13.6870 Cl    489  CCL489     -0.0870
   2585 CL         38.0540   43.0650   14.9930 Cl    489  CCL489     -0.0870
   2586 HX         35.8070   43.5220   14.9970 H     489  CCL489      0.0806
   2587 C          11.1080   39.2080   21.3060 C.3   490  CCL490      0.1805
   2588 CL         12.0630   39.5650   22.7240 Cl    490  CCL490     -0.0870
   2589 CL         11.9580   38.2530   20.1350 Cl    490  CCL490     -0.0870
   2590 CL         10.4690   40.5500   20.4870 Cl    490  CCL490     -0.0870
   2591 HX         10.2510   38.6400   21.6550 H     490  CCL490      0.0806
   2592 C           3.9420   11.7280   47.7190 C.3   491  CCL491      0.1805
   2593 CL          4.4680   10.0520   48.0770 Cl    491  CCL491     -0.0870
   2594 CL          2.1890   11.7280   47.8720 Cl    491  CCL491     -0.0870
   2595 CL          4.5160   12.1390   46.1370 Cl    491  CCL491     -0.0870
   2596 HX          4.3530   12.4380   48.4300 H     491  CCL491      0.0806
   2597 C          37.3850   30.2900   31.1930 C.3   492  CCL492      0.1805
   2598 CL         39.0750   30.2060   30.6550 Cl    492  CCL492     -0.0870
   2599 CL         36.4810   28.9520   30.5730 Cl    492  CCL492     -0.0870
   2600 CL         36.6330   31.7640   30.6020 Cl    492  CCL492     -0.0870
   2601 HX         37.4540   30.3010   32.2770 H     492  CCL492      0.0806
   2602 C          11.7270   15.4460   31.1190 C.3   493  CCL493      0.1805
   2603 CL         10.0410   15.0530   31.1080 Cl    493  CCL493     -0.0870
   2604 CL         12.2530   16.1150   32.6870 Cl    493  CCL493     -0.0870
   2605 CL         12.2240   16.4390   29.7170 Cl    493  CCL493     -0.0870
   2606 HX         12.2470   14.4960   31.0390 H     493  CCL493      0.0806
   2607 C          10.2010   30.8420   17.7770 C.3   494  CCL494      0.1805
   2608 CL          9.7280   31.9700   19.0780 Cl    494  CCL494     -0.0870
   2609 CL         11.8810   30.8850   17.3530 Cl    494  CCL494     -0.0870
   2610 CL          9.2140   31.3220   16.4050 Cl    494  CCL494     -0.0870
   2611 HX          9.8960   29.8610   18.1310 H     494  CCL494      0.0806
   2612 C          37.9430   25.1740   28.6420 C.3   495  CCL495      0.1805
   2613 CL         38.0730   23.3920   28.8540 Cl    495  CCL495     -0.0870
   2614 CL         38.7470   26.0150   29.9550 Cl    495  CCL495     -0.0870
   2615 CL         36.2580   25.5220   28.5490 Cl    495  CCL495     -0.0870
   2616 HX         38.3900   25.4050   27.6790 H     495  CCL495      0.0806
   2617 C          46.8260   14.8320   28.4220 C.3   496  CCL496      0.1805
   2618 CL         45.8710   13.8850   27.2930 Cl    496  CCL496     -0.0870
   2619 CL         45.8350   14.9030   29.9060 Cl    496  CCL496     -0.0870
   2620 CL         47.0630   16.4550   27.8380 Cl    496  CCL496     -0.0870
   2621 HX         47.7920   14.3410   28.4970 H     496  CCL496      0.0806
   2622 C          13.9210   10.1060   10.7400 C.3   497  CCL497      0.1805
   2623 CL         14.6340   11.1490   11.9150 Cl    497  CCL497     -0.0870
   2624 CL         14.6930   10.4730    9.2330 Cl    497  CCL497     -0.0870
   2625 CL         12.0960   10.1670   10.5650 Cl    497  CCL497     -0.0870
   2626 HX         14.1060    9.0680   11.0000 H     497  CCL497      0.0806
   2627 C           3.9870   31.6340   49.0690 C.3   498  CCL498      0.1805
   2628 CL          4.0470   31.0260   50.7370 Cl    498  CCL498     -0.0870
   2629 CL          5.4590   32.4360   48.5350 Cl    498  CCL498     -0.0870
   2630 CL          2.4070   32.5050   49.0700 Cl    498  CCL498     -0.0870
   2631 HX          3.7730   30.7330   48.5030 H     498  CCL498      0.0806
   2632 C           9.6110   24.5460   26.6120 C.3   499  CCL499      0.1805
   2633 CL          8.6240   25.6790   27.4370 Cl    499  CCL499     -0.0870
   2634 CL         10.8460   23.9140   27.6670 Cl    499  CCL499     -0.0870
   2635 CL         10.3470   25.4270   25.2520 Cl    499  CCL499     -0.0870
   2636 HX          9.0280   23.7440   26.1700 H     499  CCL499      0.0806
   2637 C          47.2870    7.3010   12.5180 C.3   500  CCL500      0.1805
   2638 CL         47.0800    8.9200   11.6380 Cl    500  CCL500     -0.0870
   2639 CL         48.8040    7.2340   13.3390 Cl    500  CCL500     -0.0870
   2640 CL         47.1890    5.9320   11.4100 Cl    500  CCL500     -0.0870
   2641 HX         46.5460    7.3620   13.3100 H     500  CCL500      0.0806
   2642 C          27.1340   45.0450   36.5650 C.3   501  CCL501      0.1805
   2643 CL         25.9210   43.8030   36.5080 Cl    501  CCL501     -0.0870
   2644 CL         28.5610   44.6110   35.6340 Cl    501  CCL501     -0.0870
   2645 CL         27.5170   45.3020   38.2970 Cl    501  CCL501     -0.0870
   2646 HX         26.7790   46.0070   36.2080 H     501  CCL501      0.0806
   2647 C          41.3510    7.5350    4.7780 C.3   502  CCL502      0.1805
   2648 CL         40.1920    6.3110    5.5530 Cl    502  CCL502     -0.0870
   2649 CL         41.3910    7.1870    3.0730 Cl    502  CCL502     -0.0870
   2650 CL         42.9460    7.3730    5.4930 Cl    502  CCL502     -0.0870
   2651 HX         41.1140    8.5920    4.8530 H     502  CCL502      0.0806
   2652 C          15.3710   39.6090    9.2180 C.3   503  CCL503      0.1805
   2653 CL         15.4730   40.5210   10.7320 Cl    503  CCL503     -0.0870
   2654 CL         15.7530   37.8540    9.2930 Cl    503  CCL503     -0.0870
   2655 CL         16.2560   40.4190    7.8890 Cl    503  CCL503     -0.0870
   2656 HX         14.3230   39.5280    8.9470 H     503  CCL503      0.0806
   2657 C           9.9020   38.3870   31.0240 C.3   504  CCL504      0.1805
   2658 CL          8.8820   39.0980   32.2490 Cl    504  CCL504     -0.0870
   2659 CL          9.3160   38.4940   29.3720 Cl    504  CCL504     -0.0870
   2660 CL         10.1150   36.6720   31.4600 Cl    504  CCL504     -0.0870
   2661 HX         10.8620   38.8960   31.0210 H     504  CCL504      0.0806
   2662 C          34.4870   48.1880   14.3810 C.3   505  CCL505      0.1805
   2663 CL         33.1520   47.0740   14.3240 Cl    505  CCL505     -0.0870
   2664 CL         34.8440   48.7540   12.7700 Cl    505  CCL505     -0.0870
   2665 CL         35.9280   47.1330   14.9450 Cl    505  CCL505     -0.0870
   2666 HX         34.3840   49.0530   15.0290 H     505  CCL505      0.0806
   2667 C          41.1190    5.8030   30.3410 C.3   506  CCL506      0.1805
   2668 CL         42.6040    5.2590   29.6640 Cl    506  CCL506     -0.0870
   2669 CL         40.9880    5.5420   32.0630 Cl    506  CCL506     -0.0870
   2670 CL         39.7900    4.9410   29.5210 Cl    506  CCL506     -0.0870
   2671 HX         41.0780    6.8770   30.1830 H     506  CCL506      0.0806
   2672 C          11.0680   32.6140   54.1620 C.3   507  CCL507      0.1805
   2673 CL         11.1800   32.6450   55.9250 Cl    507  CCL507     -0.0870
   2674 CL          9.6500   31.6510   53.8450 Cl    507  CCL507     -0.0870
   2675 CL         12.5820   31.8710   53.5520 Cl    507  CCL507     -0.0870
   2676 HX         10.9550   33.6320   53.8020 H     507  CCL507      0.0806
   2677 C          11.2280   40.5750   26.9440 C.3   508  CCL508      0.1805
   2678 CL         10.7810   39.2210   25.9350 Cl    508  CCL508     -0.0870
   2679 CL         10.4460   42.1150   26.5420 Cl    508  CCL508     -0.0870
   2680 CL         13.0140   40.8510   27.0030 Cl    508  CCL508     -0.0870
   2681 HX         10.8920   40.4020   27.9620 H     508  CCL508      0.0806
   2682 C          41.5110   13.0520   33.5000 C.3   509  CCL509      0.1805
   2683 CL         40.9720   14.1110   34.8320 Cl    509  CCL509     -0.0870
   2684 CL         40.1360   12.3490   32.5240 Cl    509  CCL509     -0.0870
   2685 CL         42.6490   11.7840   34.2150 Cl    509  CCL509     -0.0870
   2686 HX         42.0710   13.6250   32.7670 H     509  CCL509      0.0806
   2687 C           3.0660    6.0580   42.0140 C.3   510  CCL510      0.1805
   2688 CL          1.2430    6.0890   41.9850 Cl    510  CCL510     -0.0870
   2689 CL          3.7440    6.1670   40.4230 Cl    510  CCL510     -0.0870
   2690 CL          3.6050    4.6590   42.9950 Cl    510  CCL510     -0.0870
   2691 HX          3.3700    6.9290   42.5860 H     510  CCL510      0.0806
   2692 C          20.7400   40.5790    5.5440 C.3   511  CCL511      0.1805
   2693 CL         21.0700   39.0940    6.4380 Cl    511  CCL511     -0.0870
   2694 CL         22.1470   41.5540    5.5710 Cl    511  CCL511     -0.0870
   2695 CL         19.3860   41.4410    6.2610 Cl    511  CCL511     -0.0870
   2696 HX         20.5680   40.4390    4.4810 H     511  CCL511      0.0806
   2697 C          39.5510   28.4710   25.9220 C.3   512  CCL512      0.1805
   2698 CL         40.0720   28.7650   27.5760 Cl    512  CCL512     -0.0870
   2699 CL         37.8700   28.0730   26.0030 Cl    512  CCL512     -0.0870
   2700 CL         40.5230   27.3100   25.0820 Cl    512  CCL512     -0.0870
   2701 HX         39.5010   29.4220   25.4000 H     512  CCL512      0.0806
   2702 C          31.3590    9.3570   28.2960 C.3   513  CCL513      0.1805
   2703 CL         32.6650    8.2300   28.8140 Cl    513  CCL513     -0.0870
   2704 CL         29.9410    8.3540   28.1030 Cl    513  CCL513     -0.0870
   2705 CL         31.6810   10.2890   26.8350 Cl    513  CCL513     -0.0870
   2706 HX         31.2140   10.0400   29.1280 H     513  CCL513      0.0806
   2707 C          -6.4010   31.6570   26.5940 C.3   514  CCL514      0.1805
   2708 CL         -5.0600   30.6020   27.2500 Cl    514  CCL514     -0.0870
   2709 CL         -6.3580   31.5160   24.8850 Cl    514  CCL514     -0.0870
   2710 CL         -6.1960   33.3710   27.0350 Cl    514  CCL514     -0.0870
   2711 HX         -7.3760   31.3040   26.9190 H     514  CCL514      0.0806
   2712 C          32.7010   36.5840    4.0030 C.3   515  CCL515      0.1805
   2713 CL         34.2900   36.4960    3.2310 Cl    515  CCL515     -0.0870
   2714 CL         32.7500   37.9010    5.2940 Cl    515  CCL515     -0.0870
   2715 CL         32.3550   35.0350    4.7170 Cl    515  CCL515     -0.0870
   2716 HX         31.9470   36.7520    3.2410 H     515  CCL515      0.0806
   2717 C          40.8590    1.5950   28.1800 C.3   516  CCL516      0.1805
   2718 CL         41.9610    0.9040   27.0350 Cl    516  CCL516     -0.0870
   2719 CL         41.2780    1.1050   29.9030 Cl    516  CCL516     -0.0870
   2720 CL         39.2580    0.9970   27.7320 Cl    516  CCL516     -0.0870
   2721 HX         40.7850    2.6770   28.1130 H     516  CCL516      0.0806
   2722 C          31.1250   17.7960    3.9480 C.3   517  CCL517      0.1805
   2723 CL         31.2460   18.3000    2.2750 Cl    517  CCL517     -0.0870
   2724 CL         31.6220   19.0330    5.1120 Cl    517  CCL517     -0.0870
   2725 CL         32.0660   16.3450    4.3060 Cl    517  CCL517     -0.0870
   2726 HX         30.0830   17.5320    4.1030 H     517  CCL517      0.0806
   2727 C          41.5540   12.5540   15.1720 C.3   518  CCL518      0.1805
   2728 CL         41.4880   12.6920   16.9230 Cl    518  CCL518     -0.0870
   2729 CL         42.3350   13.9690   14.4390 Cl    518  CCL518     -0.0870
   2730 CL         40.0110   12.3940   14.4350 Cl    518  CCL518     -0.0870
   2731 HX         42.1300   11.6590   14.9560 H     518  CCL518      0.0806
   2732 C          18.7210   33.4850   46.6900 C.3   519  CCL519      0.1805
   2733 CL         20.0920   34.6020   47.0690 Cl    519  CCL519     -0.0870
   2734 CL         17.8420   33.8900   45.1890 Cl    519  CCL519     -0.0870
   2735 CL         17.7500   33.2650   48.1750 Cl    519  CCL519     -0.0870
   2736 HX         19.2780   32.5720   46.5020 H     519  CCL519      0.0806
   2737 C           9.9720   26.9180    7.5720 C.3   520  CCL520      0.1805
   2738 CL         10.4550   28.4630    8.2850 Cl    520  CCL520     -0.0870
   2739 CL          9.7750   27.1050    5.8260 Cl    520  CCL520     -0.0870
   2740 CL          8.4330   26.4020    8.3490 Cl    520  CCL520     -0.0870
   2741 HX         10.7790   26.2030    7.7060 H     520  CCL520      0.0806
   2742 C          21.5410   -5.1120   31.2920 C.3   521  CCL521      0.1805
   2743 CL         21.9880   -4.2070   29.8250 Cl    521  CCL521     -0.0870
   2744 CL         20.5220   -6.4500   30.8510 Cl    521  CCL521     -0.0870
   2745 CL         20.8700   -3.9640   32.4900 Cl    521  CCL521     -0.0870
   2746 HX         22.4890   -5.3910   31.7420 H     521  CCL521      0.0806
   2747 C          33.6530   44.6910   41.0500 C.3   522  CCL522      0.1805
   2748 CL         35.0580   43.7230   40.9260 Cl    522  CCL522     -0.0870
   2749 CL         33.4100   45.5600   39.5190 Cl    522  CCL522     -0.0870
   2750 CL         33.9170   45.7920   42.4720 Cl    522  CCL522     -0.0870
   2751 HX         32.8590   43.9660   41.2040 H     522  CCL522      0.0806
   2752 C           3.1120    0.6350   27.2790 C.3   523  CCL523      0.1805
   2753 CL          3.4250    0.1750   28.9560 Cl    523  CCL523     -0.0870
   2754 CL          2.0860   -0.5500   26.3840 Cl    523  CCL523     -0.0870
   2755 CL          4.6220    0.8160   26.3350 Cl    523  CCL523     -0.0870
   2756 HX          2.6220    1.6010   27.3590 H     523  CCL523      0.0806
   2757 C          37.8140   34.1140   12.8120 C.3   524  CCL524      0.1805
   2758 CL         36.9610   33.8110   14.3320 Cl    524  CCL524     -0.0870
   2759 CL         36.6370   34.2050   11.4720 Cl    524  CCL524     -0.0870
   2760 CL         38.9470   32.8210   12.5590 Cl    524  CCL524     -0.0870
   2761 HX         38.3510   35.0480   12.9520 H     524  CCL524      0.0806
   2762 C          15.7980    2.6200   36.6180 C.3   525  CCL525      0.1805
   2763 CL         14.6610    1.6080   37.5040 Cl    525  CCL525     -0.0870
   2764 CL         16.1310    1.8720   35.1230 Cl    525  CCL525     -0.0870
   2765 CL         17.2500    2.9590   37.5290 Cl    525  CCL525     -0.0870
   2766 HX         15.2600    3.5440   36.4300 H     525  CCL525      0.0806
   2767 C          38.4600   21.8340   24.5870 C.3   526  CCL526      0.1805
   2768 CL         39.6050   21.8980   25.8020 Cl    526  CCL526     -0.0870
   2769 CL         36.8740   21.4160   25.2430 Cl    526  CCL526     -0.0870
   2770 CL         38.8410   20.7100   23.2250 Cl    526  CCL526     -0.0870
   2771 HX         38.4000   22.8240   24.1440 H     526  CCL526      0.0806
   2772 C          33.1230   39.2060   20.3550 C.3   527  CCL527      0.1805
   2773 CL         33.3180   37.6090   20.9700 Cl    527  CCL527     -0.0870
   2774 CL         34.6520   39.8320   19.7540 Cl    527  CCL527     -0.0870
   2775 CL         32.4580   40.2020   21.6010 Cl    527  CCL527     -0.0870
   2776 HX         32.4480   39.1290   19.5080 H     527  CCL527      0.0806
   2777 C          -4.0400   26.1510    6.1740 C.3   528  CCL528      0.1805
   2778 CL         -2.9740   27.4840    5.5930 Cl    528  CCL528     -0.0870
   2779 CL         -4.1730   24.8040    5.0000 Cl    528  CCL528     -0.0870
   2780 CL         -5.5850   26.6740    6.7590 Cl    528  CCL528     -0.0870
   2781 HX         -3.5900   25.6800    7.0440 H     528  CCL528      0.0806
   2782 C          45.8550    3.2690   28.0280 C.3   529  CCL529      0.1805
   2783 CL         44.6380    3.8200   26.8040 Cl    529  CCL529     -0.0870
   2784 CL         45.0130    2.3850   29.2680 Cl    529  CCL529     -0.0870
   2785 CL         46.6180    4.7090   28.7250 Cl    529  CCL529     -0.0870
   2786 HX         46.5220    2.5190   27.6140 H     529  CCL529      0.0806
   2787 C          -1.4560   20.7480   16.0460 C.3   530  CCL530      0.1805
   2788 CL         -1.3190   19.1780   16.8510 Cl    530  CCL530     -0.0870
   2789 CL         -2.0930   22.1670   16.9930 Cl    530  CCL530     -0.0870
   2790 CL         -2.2440   20.5420   14.4420 Cl    530  CCL530     -0.0870
   2791 HX         -0.4600   21.1120   15.8100 H     530  CCL530      0.0806
   2792 C          40.9070   17.2410   -4.8370 C.3   531  CCL531      0.1805
   2793 CL         41.7780   16.8430   -3.2930 Cl    531  CCL531     -0.0870
   2794 CL         39.1590   17.2170   -4.5650 Cl    531  CCL531     -0.0870
   2795 CL         41.2930   15.9430   -6.0340 Cl    531  CCL531     -0.0870
   2796 HX         41.1900   18.2290   -5.1880 H     531  CCL531      0.0806
   2797 C          11.7900    0.8450   14.7020 C.3   532  CCL532      0.1805
   2798 CL         11.0930    1.5450   13.1640 Cl    532  CCL532     -0.0870
   2799 CL         10.9190   -0.4990   15.3360 Cl    532  CCL532     -0.0870
   2800 CL         12.1170    1.9960   15.9920 Cl    532  CCL532     -0.0870
   2801 HX         12.7360    0.4290   14.3690 H     532  CCL532      0.0806
   2802 C           6.7260   15.7510   17.6130 C.3   533  CCL533      0.1805
   2803 CL          7.1190   14.6890   19.0150 Cl    533  CCL533     -0.0870
   2804 CL          7.1680   15.0590   16.0740 Cl    533  CCL533     -0.0870
   2805 CL          7.4240   17.3550   17.8320 Cl    533  CCL533     -0.0870
   2806 HX          5.6470   15.8660   17.6380 H     533  CCL533      0.0806
   2807 C          14.0910   -3.0680   14.8860 C.3   534  CCL534      0.1805
   2808 CL         13.3190   -2.4040   13.4230 Cl    534  CCL534     -0.0870
   2809 CL         13.3190   -2.2240   16.2370 Cl    534  CCL534     -0.0870
   2810 CL         15.7990   -2.7840   15.0430 Cl    534  CCL534     -0.0870
   2811 HX         13.9000   -4.1370   14.9080 H     534  CCL534      0.0806
   2812 C          32.4280   13.8520   36.5040 C.3   535  CCL535      0.1805
   2813 CL         33.2090   12.4270   35.6900 Cl    535  CCL535     -0.0870
   2814 CL         33.6460   14.9360   37.1800 Cl    535  CCL535     -0.0870
   2815 CL         31.3690   13.4460   37.8590 Cl    535  CCL535     -0.0870
   2816 HX         31.8890   14.5360   35.8560 H     535  CCL535      0.0806
   2817 C          26.7200   45.1670   15.4280 C.3   536  CCL536      0.1805
   2818 CL         26.2700   45.6740   13.8010 Cl    536  CCL536     -0.0870
   2819 CL         28.5180   44.9350   15.4540 Cl    536  CCL536     -0.0870
   2820 CL         25.8720   43.7090   15.7900 Cl    536  CCL536     -0.0870
   2821 HX         26.4690   45.9570   16.1290 H     536  CCL536      0.0806
   2822 C          25.3110   33.7110   24.0450 C.3   537  CCL537      0.1805
   2823 CL         23.7410   33.4710   24.8220 Cl    537  CCL537     -0.0870
   2824 CL         26.5580   32.6990   24.6390 Cl    537  CCL537     -0.0870
   2825 CL         25.8220   35.4340   24.0640 Cl    537  CCL537     -0.0870
   2826 HX         25.1130   33.5520   22.9890 H     537  CCL537      0.0806
   2827 C          31.8860   41.9820   15.3200 C.3   538  CCL538      0.1805
   2828 CL         30.3560   41.1960   15.3640 Cl    538  CCL538     -0.0870
   2829 CL         31.7950   43.5790   16.1460 Cl    538  CCL538     -0.0870
   2830 CL         32.5100   42.1690   13.7450 Cl    538  CCL538     -0.0870
   2831 HX         32.6230   41.3680   15.8300 H     538  CCL538      0.0806
   2832 C          19.1350   42.0580   18.3110 C.3   539  CCL539      0.1805
   2833 CL         19.3380   43.7520   18.9200 Cl    539  CCL539     -0.0870
   2834 CL         18.5220   41.0160   19.5310 Cl    539  CCL539     -0.0870
   2835 CL         20.7310   41.4090   17.7230 Cl    539  CCL539     -0.0870
   2836 HX         18.3620   42.0710   17.5490 H     539  CCL539      0.0806
   2837 C          16.0030   18.9380    5.2290 C.3   540  CCL540      0.1805
   2838 CL         17.4370   18.4070    4.3860 Cl    540  CCL540     -0.0870
   2839 CL         15.7730   18.1150    6.8050 Cl    540  CCL540     -0.0870
   2840 CL         14.5590   18.8530    4.2590 Cl    540  CCL540     -0.0870
   2841 HX         16.0100   20.0210    5.3080 H     540  CCL540      0.0806
   2842 C          19.8230   -2.5850   19.7900 C.3   541  CCL541      0.1805
   2843 CL         20.2040   -3.0110   18.1470 Cl    541  CCL541     -0.0870
   2844 CL         21.1270   -1.6340   20.5260 Cl    541  CCL541     -0.0870
   2845 CL         19.3810   -3.9960   20.7840 Cl    541  CCL541     -0.0870
   2846 HX         18.9600   -1.9290   19.8560 H     541  CCL541      0.0806
   2847 C          35.5320   49.8780   30.5320 C.3   542  CCL542      0.1805
   2848 CL         36.6000   50.8380   29.4360 Cl    542  CCL542     -0.0870
   2849 CL         33.8860   50.4500   30.3970 Cl    542  CCL542     -0.0870
   2850 CL         36.1670   49.9470   32.2030 Cl    542  CCL542     -0.0870
   2851 HX         35.4650   48.8320   30.2470 H     542  CCL542      0.0806
   2852 C          20.9740   38.0740   19.4860 C.3   543  CCL543      0.1805
   2853 CL         22.1510   36.7510   19.2780 Cl    543  CCL543     -0.0870
   2854 CL         21.6520   39.2680   20.5540 Cl    543  CCL543     -0.0870
   2855 CL         19.5190   37.3980   20.0170 Cl    543  CCL543     -0.0870
   2856 HX         20.7990   38.4960   18.5010 H     543  CCL543      0.0806
   2857 C           4.6770   29.9150   44.3110 C.3   544  CCL544      0.1805
   2858 CL          3.2750   30.8870   43.6660 Cl    544  CCL544     -0.0870
   2859 CL          4.8840   28.3710   43.4080 Cl    544  CCL544     -0.0870
   2860 CL          4.4380   29.5460   46.0410 Cl    544  CCL544     -0.0870
   2861 HX          5.6060   30.4780   44.3100 H     544  CCL544      0.0806
   2862 C          33.6870   25.8750   47.6810 C.3   545  CCL545      0.1805
   2863 CL         32.4440   26.1660   46.4190 Cl    545  CCL545     -0.0870
   2864 CL         34.9940   27.0540   47.3330 Cl    545  CCL545     -0.0870
   2865 CL         34.1730   24.1390   47.4830 Cl    545  CCL545     -0.0870
   2866 HX         33.3220   25.9820   48.6990 H     545  CCL545      0.0806
   2867 C          27.2150   15.3910   19.1790 C.3   546  CCL546      0.1805
   2868 CL         25.6770   16.1980   18.6970 Cl    546  CCL546     -0.0870
   2869 CL         27.8010   14.3090   17.8730 Cl    546  CCL546     -0.0870
   2870 CL         26.9660   14.5170   20.6900 Cl    546  CCL546     -0.0870
   2871 HX         27.8580   16.2340   19.4130 H     546  CCL546      0.0806
   2872 C          30.8800   39.5020   26.5150 C.3   547  CCL547      0.1805
   2873 CL         30.7330   41.2870   26.5580 Cl    547  CCL547     -0.0870
   2874 CL         31.7660   38.8760   25.1170 Cl    547  CCL547     -0.0870
   2875 CL         29.3490   38.6320   26.5280 Cl    547  CCL547     -0.0870
   2876 HX         31.5020   39.2660   27.3730 H     547  CCL547      0.0806
   2877 C          10.1830    5.1100   41.0040 C.3   548  CCL548      0.1805
   2878 CL         10.5310    6.6560   41.8130 Cl    548  CCL548     -0.0870
   2879 CL         10.3250    5.2810   39.2370 Cl    548  CCL548     -0.0870
   2880 CL          8.4620    4.6910   41.4660 Cl    548  CCL548     -0.0870
   2881 HX         10.8570    4.3120   41.2990 H     548  CCL548      0.0806
   2882 C          21.0830   36.3980   33.6730 C.3   549  CCL549      0.1805
   2883 CL         21.1630   38.0170   34.2810 Cl    549  CCL549     -0.0870
   2884 CL         22.1440   36.0340   32.2760 Cl    549  CCL549     -0.0870
   2885 CL         19.4320   35.8050   33.3900 Cl    549  CCL549     -0.0870
   2886 HX         21.5270   35.8190   34.4770 H     549  CCL549      0.0806
   2887 C          50.3940    6.8870   40.0620 C.3   550  CCL550      0.1805
   2888 CL         51.0190    5.9370   38.6870 Cl    550  CCL550     -0.0870
   2889 CL         48.9620    6.1780   40.7130 Cl    550  CCL550     -0.0870
   2890 CL         50.0530    8.4970   39.5010 Cl    550  CCL550     -0.0870
   2891 HX         51.2490    6.9140   40.7310 H     550  CCL550      0.0806
   2892 C          29.1170   34.0060   32.0870 C.3   551  CCL551      0.1805
   2893 CL         29.3290   35.1280   33.4240 Cl    551  CCL551     -0.0870
   2894 CL         27.5620   33.1160   32.0900 Cl    551  CCL551     -0.0870
   2895 CL         30.4870   32.7460   32.0910 Cl    551  CCL551     -0.0870
   2896 HX         29.2250   34.6540   31.2230 H     551  CCL551      0.0806
   2897 C          11.1900   15.5490   20.3020 C.3   552  CCL552      0.1805
   2898 CL         10.5220   15.0450   18.7670 Cl    552  CCL552     -0.0870
   2899 CL         11.0520   14.2760   21.5780 Cl    552  CCL552     -0.0870
   2900 CL         10.2330   16.9410   20.8140 Cl    552  CCL552     -0.0870
   2901 HX         12.2230   15.8680   20.2020 H     552  CCL552      0.0806
   2902 C          26.5610   12.6280   28.1920 C.3   553  CCL553      0.1805
   2903 CL         26.3490   13.1970   26.6150 Cl    553  CCL553     -0.0870
   2904 CL         27.8470   11.4520   28.3630 Cl    553  CCL553     -0.0870
   2905 CL         25.0860   12.0520   29.0580 Cl    553  CCL553     -0.0870
   2906 HX         26.8770   13.5290   28.7100 H     553  CCL553      0.0806
   2907 C          23.7700    0.1490   12.7720 C.3   554  CCL554      0.1805
   2908 CL         22.4580    1.0650   13.4350 Cl    554  CCL554     -0.0870
   2909 CL         23.2260   -1.1360   11.7940 Cl    554  CCL554     -0.0870
   2910 CL         24.9770   -0.3210   13.9880 Cl    554  CCL554     -0.0870
   2911 HX         24.2340    0.9000   12.1390 H     554  CCL554      0.0806
   2912 C          45.6550    3.6390   38.3140 C.3   555  CCL555      0.1805
   2913 CL         44.5000    3.3150   39.6880 Cl    555  CCL555     -0.0870
   2914 CL         44.7650    3.5970   36.7890 Cl    555  CCL555     -0.0870
   2915 CL         46.9970    2.5940   38.2610 Cl    555  CCL555     -0.0870
   2916 HX         45.8440    4.6740   38.5860 H     555  CCL555      0.0806
   2917 C           5.8290   29.8350    4.4260 C.3   556  CCL556      0.1805
   2918 CL          5.6060   29.0840    5.9990 Cl    556  CCL556     -0.0870
   2919 CL          4.9810   28.9850    3.1660 Cl    556  CCL556     -0.0870
   2920 CL          7.5780   30.0920    4.1120 Cl    556  CCL556     -0.0870
   2921 HX          5.3460   30.8050    4.4980 H     556  CCL556      0.0806
   2922 C          38.1540    7.2860   10.9880 C.3   557  CCL557      0.1805
   2923 CL         36.9180    6.1690   11.3850 Cl    557  CCL557     -0.0870
   2924 CL         38.1170    8.7840   11.8560 Cl    557  CCL557     -0.0870
   2925 CL         38.1080    7.6850    9.1880 Cl    557  CCL557     -0.0870
   2926 HX         39.1040    6.8210   11.2330 H     557  CCL557      0.0806
   2927 C          10.5540   29.9790   27.4590 C.3   558  CCL558      0.1805
   2928 CL          9.2930   29.0310   26.8380 Cl    558  CCL558     -0.0870
   2929 CL         10.5240   31.6680   26.9390 Cl    558  CCL558     -0.0870
   2930 CL         12.1800   29.3360   27.1570 Cl    558  CCL558     -0.0870
   2931 HX         10.4550   29.9790   28.5400 H     558  CCL558      0.0806
   2932 C           5.3210   24.2090    8.2140 C.3   559  CCL559      0.1805
   2933 CL          5.5450   23.5810    6.5610 Cl    559  CCL559     -0.0870
   2934 CL          4.5460   23.0000    9.3560 Cl    559  CCL559     -0.0870
   2935 CL          4.4040   25.7300    8.1980 Cl    559  CCL559     -0.0870
   2936 HX          6.2300   24.5810    8.6760 H     559  CCL559      0.0806
   2937 C          33.5290   21.7090    6.0790 C.3   560  CCL560      0.1805
   2938 CL         34.4140   20.7910    7.3240 Cl    560  CCL560     -0.0870
   2939 CL         34.5130   22.9720    5.3910 Cl    560  CCL560     -0.0870
   2940 CL         32.0120   22.4080    6.6860 Cl    560  CCL560     -0.0870
   2941 HX         33.1930   20.9990    5.3280 H     560  CCL560      0.0806
   2942 C          20.6680   18.8590   46.3550 C.3   561  CCL561      0.1805
   2943 CL         19.7760   19.7260   45.1800 Cl    561  CCL561     -0.0870
   2944 CL         20.3780   19.4790   48.0090 Cl    561  CCL561     -0.0870
   2945 CL         22.3860   18.7760   46.0880 Cl    561  CCL561     -0.0870
   2946 HX         20.2970   17.8390   46.3520 H     561  CCL561      0.0806
   2947 C          28.9630   36.5580   -0.0020 C.3   562  CCL562      0.1805
   2948 CL         27.2430   36.1230   -0.1660 Cl    562  CCL562     -0.0870
   2949 CL         29.6060   36.1680    1.6110 Cl    562  CCL562     -0.0870
   2950 CL         28.9550   38.3570   -0.3060 Cl    562  CCL562     -0.0870
   2951 HX         29.4940   35.9810   -0.7530 H     562  CCL562      0.0806
   2952 C          17.8600   29.5950    7.5340 C.3   563  CCL563      0.1805
   2953 CL         17.2100   30.6670    8.7090 Cl    563  CCL563     -0.0870
   2954 CL         18.3340   30.4650    6.1070 Cl    563  CCL563     -0.0870
   2955 CL         16.8130   28.1430    7.2350 Cl    563  CCL563     -0.0870
   2956 HX         18.7670   29.1630    7.9460 H     563  CCL563      0.0806
   2957 C          25.1890   -7.1750   34.6110 C.3   564  CCL564      0.1805
   2958 CL         25.4270   -5.7680   35.6870 Cl    564  CCL564     -0.0870
   2959 CL         26.7210   -7.6190   33.7890 Cl    564  CCL564     -0.0870
   2960 CL         23.7790   -6.9820   33.5590 Cl    564  CCL564     -0.0870
   2961 HX         24.9240   -7.9920   35.2760 H     564  CCL564      0.0806
   2962 C          -2.7200   30.3830   54.7570 C.3   565  CCL565      0.1805
   2963 CL         -1.5080   31.4510   54.3170 Cl    565  CCL565     -0.0870
   2964 CL         -2.7590   28.9880   53.6380 Cl    565  CCL565     -0.0870
   2965 CL         -4.2600   31.2210   54.9730 Cl    565  CCL565     -0.0870
   2966 HX         -2.4400   30.0310   55.7450 H     565  CCL565      0.0806
   2967 C          36.3890   17.7100    3.9770 C.3   566  CCL566      0.1805
   2968 CL         36.5950   16.0320    4.4530 Cl    566  CCL566     -0.0870
   2969 CL         37.2170   18.7540    5.0630 Cl    566  CCL566     -0.0870
   2970 CL         34.6750   18.0770    3.9770 Cl    566  CCL566     -0.0870
   2971 HX         36.8510   17.7930    2.9980 H     566  CCL566      0.0806
   2972 C          39.9440   27.5650   16.7860 C.3   567  CCL567      0.1805
   2973 CL         40.4920   25.9030   17.0440 Cl    567  CCL567     -0.0870
   2974 CL         41.2160   28.5870   16.1860 Cl    567  CCL567     -0.0870
   2975 CL         39.3300   28.3270   18.3230 Cl    567  CCL567     -0.0870
   2976 HX         39.1850   27.4640   16.0160 H     567  CCL567      0.0806
   2977 C          24.3520   11.6320   40.5810 C.3   568  CCL568      0.1805
   2978 CL         24.6100   10.1470   39.7070 Cl    568  CCL568     -0.0870
   2979 CL         24.1160   11.3050   42.3040 Cl    568  CCL568     -0.0870
   2980 CL         22.9800   12.5130   40.1170 Cl    568  CCL568     -0.0870
   2981 HX         25.2390   12.2500   40.4800 H     568  CCL568      0.0806
   2982 C          18.7120   -0.5750   24.0140 C.3   569  CCL569      0.1805
   2983 CL         19.2870    0.6840   25.1280 Cl    569  CCL569     -0.0870
   2984 CL         19.6710   -2.0340   23.9930 Cl    569  CCL569     -0.0870
   2985 CL         18.5000    0.1230   22.4360 Cl    569  CCL569     -0.0870
   2986 HX         17.7310   -0.8830   24.3600 H     569  CCL569      0.0806
   2987 C          28.5590   37.0840   38.2340 C.3   570  CCL570      0.1805
   2988 CL         28.0870   38.4110   39.3260 Cl    570  CCL570     -0.0870
   2989 CL         27.1790   36.4120   37.4890 Cl    570  CCL570     -0.0870
   2990 CL         29.5900   35.8280   38.9780 Cl    570  CCL570     -0.0870
   2991 HX         29.0750   37.5430   37.3960 H     570  CCL570      0.0806
   2992 C          42.2450   27.8250   45.7430 C.3   571  CCL571      0.1805
   2993 CL         42.5350   27.4040   44.0410 Cl    571  CCL571     -0.0870
   2994 CL         42.7320   29.5500   46.0150 Cl    571  CCL571     -0.0870
   2995 CL         42.8210   26.6320   46.9310 Cl    571  CCL571     -0.0870
   2996 HX         41.1700   27.7440   45.8790 H     571  CCL571      0.0806
   2997 C          20.4670   33.2640   27.7510 C.3   572  CCL572      0.1805
   2998 CL         19.1670   33.9700   28.7030 Cl    572  CCL572     -0.0870
   2999 CL         21.9310   34.1440   27.9590 Cl    572  CCL572     -0.0870
   3000 CL         19.9870   33.2130   26.0320 Cl    572  CCL572     -0.0870
   3001 HX         20.7270   32.2690   28.0980 H     572  CCL572      0.0806
   3002 C          36.1750   15.6250    9.0070 C.3   573  CCL573      0.1805
   3003 CL         35.2020   17.0780    8.7100 Cl    573  CCL573     -0.0870
   3004 CL         36.0730   14.3410    7.7600 Cl    573  CCL573     -0.0870
   3005 CL         35.7970   14.8560   10.5700 Cl    573  CCL573     -0.0870
   3006 HX         37.2060   15.9570    9.0940 H     573  CCL573      0.0806
   3007 C           1.9620   38.0580   25.5070 C.3   574  CCL574      0.1805
   3008 CL          1.2470   37.7570   23.9870 Cl    574  CCL574     -0.0870
   3009 CL          0.8980   37.5560   26.8000 Cl    574  CCL574     -0.0870
   3010 CL          2.2900   39.7370   25.7510 Cl    574  CCL574     -0.0870
   3011 HX          2.8540   37.4400   25.5240 H     574  CCL574      0.0806
   3012 C           3.7110   35.2780   38.0020 C.3   575  CCL575      0.1805
   3013 CL          4.2930   36.4540   36.8860 Cl    575  CCL575     -0.0870
   3014 CL          4.2380   33.7000   37.4000 Cl    575  CCL575     -0.0870
   3015 CL          1.9420   35.3110   38.2540 Cl    575  CCL575     -0.0870
   3016 HX          4.1560   35.4060   38.9850 H     575  CCL575      0.0806
   3017 C          52.2470   16.5370   40.2220 C.3   576  CCL576      0.1805
   3018 CL         53.2800   15.6140   41.3160 Cl    576  CCL576     -0.0870
   3019 CL         50.8070   15.5760   39.8280 Cl    576  CCL576     -0.0870
   3020 CL         53.1890   17.1510   38.8940 Cl    576  CCL576     -0.0870
   3021 HX         51.8320   17.3360   40.8300 H     576  CCL576      0.0806
   3022 C          14.6940   41.6490   21.2110 C.3   577  CCL577      0.1805
   3023 CL         15.6700   41.5450   22.6650 Cl    577  CCL577     -0.0870
   3024 CL         14.5690   40.0630   20.5750 Cl    577  CCL577     -0.0870
   3025 CL         15.4330   42.8220   20.0850 Cl    577  CCL577     -0.0870
   3026 HX         13.7120   42.0080   21.5010 H     577  CCL577      0.0806
   3027 C           0.9550   32.1720   17.7470 C.3   578  CCL578      0.1805
   3028 CL         -0.7450   32.0470   17.9870 Cl    578  CCL578     -0.0870
   3029 CL          1.8870   32.1930   19.3200 Cl    578  CCL578     -0.0870
   3030 CL          1.4410   33.5660   16.7240 Cl    578  CCL578     -0.0870
   3031 HX          1.1740   31.1990   17.3160 H     578  CCL578      0.0806
   3032 C           3.9690   -3.0250   22.9710 C.3   579  CCL579      0.1805
   3033 CL          3.8470   -4.0270   21.5450 Cl    579  CCL579     -0.0870
   3034 CL          2.8150   -1.7480   22.7540 Cl    579  CCL579     -0.0870
   3035 CL          5.5970   -2.3730   23.1670 Cl    579  CCL579     -0.0870
   3036 HX          3.7470   -3.5590   23.8900 H     579  CCL579      0.0806
   3037 C          14.0980    8.9980   14.8240 C.3   580  CCL580      0.1805
   3038 CL         12.7820   10.1450   15.2100 Cl    580  CCL580     -0.0870
   3039 CL         13.7250    7.7400   13.6300 Cl    580  CCL580     -0.0870
   3040 CL         14.7690    8.2870   16.2720 Cl    580  CCL580     -0.0870
   3041 HX         14.9660    9.5450   14.4670 H     580  CCL580      0.0806
   3042 C          24.8300   16.7550   48.5980 C.3   581  CCL581      0.1805
   3043 CL         24.8560   17.5940   50.1250 Cl    581  CCL581     -0.0870
   3044 CL         24.0590   15.1840   48.6560 Cl    581  CCL581     -0.0870
   3045 CL         26.3950   16.7300   47.8940 Cl    581  CCL581     -0.0870
   3046 HX         24.2800   17.4440   47.9640 H     581  CCL581      0.0806
   3047 C          37.7290   25.1940   -0.8790 C.3   582  CCL582      0.1805
   3048 CL         38.4370   23.5410   -0.9660 Cl    582  CCL582     -0.0870
   3049 CL         35.9330   25.1650   -0.8210 Cl    582  CCL582     -0.0870
   3050 CL         38.3190   26.1310   -2.2700 Cl    582  CCL582     -0.0870
   3051 HX         38.0490   25.6660    0.0450 H     582  CCL582      0.0806
   3052 C           9.9290    5.0580   47.7090 C.3   583  CCL583      0.1805
   3053 CL         10.1780    3.5330   46.8120 Cl    583  CCL583     -0.0870
   3054 CL          9.3560    6.3250   46.5540 Cl    583  CCL583     -0.0870
   3055 CL         11.3980    5.6490   48.5260 Cl    583  CCL583     -0.0870
   3056 HX          9.0630    4.9220   48.3490 H     583  CCL583      0.0806
   3057 C           5.7570   -0.5940    4.9390 C.3   584  CCL584      0.1805
   3058 CL          4.9760   -0.0360    6.4260 Cl    584  CCL584     -0.0870
   3059 CL          5.8940    0.7680    3.9470 Cl    584  CCL584     -0.0870
   3060 CL          5.0090   -1.9750    4.0730 Cl    584  CCL584     -0.0870
   3061 HX          6.7770   -0.8820    5.1740 H     584  CCL584      0.0806
   3062 C           9.8530   -3.2210   11.5180 C.3   585  CCL585      0.1805
   3063 CL          8.3070   -4.0610   11.2870 Cl    585  CCL585     -0.0870
   3064 CL          9.9380   -1.9130   10.4250 Cl    585  CCL585     -0.0870
   3065 CL         11.2930   -4.2480   11.3440 Cl    585  CCL585     -0.0870
   3066 HX          9.9010   -2.9720   12.5730 H     585  CCL585      0.0806
   3067 C           7.1900  -11.1790   11.2210 C.3   586  CCL586      0.1805
   3068 CL          7.9700  -12.6490   11.7310 Cl    586  CCL586     -0.0870
   3069 CL          6.8470  -11.1500    9.4910 Cl    586  CCL586     -0.0870
   3070 CL          8.1760   -9.7650   11.7370 Cl    586  CCL586     -0.0870
   3071 HX          6.2290  -11.1470   11.7260 H     586  CCL586      0.0806
   3072 C          14.6640   35.7500   36.8230 C.3   587  CCL587      0.1805
   3073 CL         12.9720   35.2350   37.0530 Cl    587  CCL587     -0.0870
   3074 CL         14.7220   37.3270   35.9890 Cl    587  CCL587     -0.0870
   3075 CL         15.5000   34.5650   35.8960 Cl    587  CCL587     -0.0870
   3076 HX         15.2300   35.7880   37.7490 H     587  CCL587      0.0806
   3077 C          17.2370    7.0440   26.2950 C.3   588  CCL588      0.1805
   3078 CL         17.2480    5.4860   27.0270 Cl    588  CCL588     -0.0870
   3079 CL         15.6250    7.7840   26.1680 Cl    588  CCL588     -0.0870
   3080 CL         17.9760    6.9780   24.7360 Cl    588  CCL588     -0.0870
   3081 HX         17.9540    7.6400   26.8520 H     588  CCL588      0.0806
   3082 C          33.1350   -1.6960   27.4760 C.3   589  CCL589      0.1805
   3083 CL         32.1890   -1.6350   25.9450 Cl    589  CCL589     -0.0870
   3084 CL         34.8870   -1.7020   27.1970 Cl    589  CCL589     -0.0870
   3085 CL         32.6330   -3.2230   28.2810 Cl    589  CCL589     -0.0870
   3086 HX         32.9340   -0.8000   28.0570 H     589  CCL589      0.0806
   3087 C          42.6790   26.5010   30.1650 C.3   590  CCL590      0.1805
   3088 CL         42.3040   26.1340   28.4370 Cl    590  CCL590     -0.0870
   3089 CL         44.1550   27.4560   30.1330 Cl    590  CCL590     -0.0870
   3090 CL         42.9100   24.9620   31.0550 Cl    590  CCL590     -0.0870
   3091 HX         41.8270   27.0220   30.5900 H     590  CCL590      0.0806
   3092 C          44.3150   11.9190    6.1170 C.3   591  CCL591      0.1805
   3093 CL         45.9990   12.4640    6.1660 Cl    591  CCL591     -0.0870
   3094 CL         43.7340   11.8180    4.5400 Cl    591  CCL591     -0.0870
   3095 CL         43.2970   12.8320    7.2360 Cl    591  CCL591     -0.0870
   3096 HX         44.2950   10.8860    6.4500 H     591  CCL591      0.0806
   3097 C          47.8530   19.3130   38.5260 C.3   592  CCL592      0.1805
   3098 CL         49.2460   19.4170   39.4760 Cl    592  CCL592     -0.0870
   3099 CL         47.0160   17.7430   38.6720 Cl    592  CCL592     -0.0870
   3100 CL         48.3760   19.6880   36.8730 Cl    592  CCL592     -0.0870
   3101 HX         47.1870   20.0830   38.9030 H     592  CCL592      0.0806
   3102 C          39.4190   28.5950    4.8340 C.3   593  CCL593      0.1805
   3103 CL         39.1010   27.7150    3.3280 Cl    593  CCL593     -0.0870
   3104 CL         40.9480   29.5200    4.8390 Cl    593  CCL593     -0.0870
   3105 CL         39.2910   27.4530    6.1670 Cl    593  CCL593     -0.0870
   3106 HX         38.6610   29.3700    4.9060 H     593  CCL593      0.0806
   3107 C          23.0530   14.1310   45.0170 C.3   594  CCL594      0.1805
   3108 CL         21.5270   14.9260   45.5290 Cl    594  CCL594     -0.0870
   3109 CL         23.3570   12.7350   45.9930 Cl    594  CCL594     -0.0870
   3110 CL         24.4200   15.3580   45.1540 Cl    594  CCL594     -0.0870
   3111 HX         23.0890   13.8250   43.9760 H     594  CCL594      0.0806
   3112 C          52.1550    8.1820   23.8280 C.3   595  CCL595      0.1805
   3113 CL         51.9280    9.8330   24.2770 Cl    595  CCL595     -0.0870
   3114 CL         52.5280    7.0770   25.1770 Cl    595  CCL595     -0.0870
   3115 CL         53.5500    8.2690   22.7400 Cl    595  CCL595     -0.0870
   3116 HX         51.2620    7.8940   23.2800 H     595  CCL595      0.0806
   3117 C          42.7810    4.7900   19.2740 C.3   596  CCL596      0.1805
   3118 CL         43.3110    4.6490   17.5540 Cl    596  CCL596     -0.0870
   3119 CL         43.0200    3.3360   20.1870 Cl    596  CCL596     -0.0870
   3120 CL         41.0840    5.3320   19.5950 Cl    596  CCL596     -0.0870
   3121 HX         43.3810    5.6170   19.6420 H     596  CCL596      0.0806
   3122 C          48.4520    7.4450   25.3620 C.3   597  CCL597      0.1805
   3123 CL         47.7790    8.4250   24.1100 Cl    597  CCL597     -0.0870
   3124 CL         47.6800    5.8370   25.5130 Cl    597  CCL597     -0.0870
   3125 CL         48.4030    8.3010   26.9710 Cl    597  CCL597     -0.0870
   3126 HX         49.5130    7.3640   25.1440 H     597  CCL597      0.0806
   3127 C          44.9330   27.8940   40.9840 C.3   598  CCL598      0.1805
   3128 CL         44.5150   29.5640   41.1540 Cl    598  CCL598     -0.0870
   3129 CL         46.6160   27.6490   41.4330 Cl    598  CCL598     -0.0870
   3130 CL         44.7220   27.2620   39.3570 Cl    598  CCL598     -0.0870
   3131 HX         44.3180   27.3240   41.6740 H     598  CCL598      0.0806
   3132 C          21.0160   43.4620   22.7160 C.3   599  CCL599      0.1805
   3133 CL         22.3680   42.8660   21.8380 Cl    599  CCL599     -0.0870
   3134 CL         21.3640   43.9670   24.4430 Cl    599  CCL599     -0.0870
   3135 CL         19.5590   42.3910   22.4890 Cl    599  CCL599     -0.0870
   3136 HX         20.9360   44.4240   22.2200 H     599  CCL599      0.0806
   3137 C           8.6600   31.1170   49.5510 C.3   600  CCL600      0.1805
   3138 CL          8.8440   32.8700   49.6910 Cl    600  CCL600     -0.0870
   3139 CL          8.0710   30.3250   50.9890 Cl    600  CCL600     -0.0870
   3140 CL         10.1460   30.3290   48.9060 Cl    600  CCL600     -0.0870
   3141 HX          7.8100   30.9400   48.8980 H     600  CCL600      0.0806
   3142 C          17.9320   20.7500    9.0240 C.3   601  CCL601      0.1805
   3143 CL         18.5550   19.4890   10.1250 Cl    601  CCL601     -0.0870
   3144 CL         16.1650   20.7760    9.0260 Cl    601  CCL601     -0.0870
   3145 CL         18.6700   20.6970    7.5140 Cl    601  CCL601     -0.0870
   3146 HX         18.3000   21.6830    9.4430 H     601  CCL601      0.0806
   3147 C          52.5670   10.2070   35.7070 C.3   602  CCL602      0.1805
   3148 CL         53.0090   11.6250   34.6930 Cl    602  CCL602     -0.0870
   3149 CL         52.5620    8.8130   34.6360 Cl    602  CCL602     -0.0870
   3150 CL         51.1170   10.2960   36.5680 Cl    602  CCL602     -0.0870
   3151 HX         53.3820    9.9760   36.3880 H     602  CCL602      0.0806
   3152 C          17.9740   36.5750    6.1930 C.3   603  CCL603      0.1805
   3153 CL         16.3590   37.2330    6.1980 Cl    603  CCL603     -0.0870
   3154 CL         18.7110   36.3540    4.5510 Cl    603  CCL603     -0.0870
   3155 CL         17.8920   35.1040    6.8840 Cl    603  CCL603     -0.0870
   3156 HX         18.6560   37.2160    6.7430 H     603  CCL603      0.0806
   3157 C          13.3950    6.9590   35.9360 C.3   604  CCL604      0.1805
   3158 CL         14.6750    6.6180   34.7750 Cl    604  CCL604     -0.0870
   3159 CL         11.8430    7.0870   35.0590 Cl    604  CCL604     -0.0870
   3160 CL         13.6740    8.4150   36.9080 Cl    604  CCL604     -0.0870
   3161 HX         13.3450    6.1420   36.6500 H     604  CCL604      0.0806
   3162 C          17.8350   -0.5960   37.4810 C.3   605  CCL605      0.1805
   3163 CL         17.3810    0.0010   39.0270 Cl    605  CCL605     -0.0870
   3164 CL         16.4380   -1.4350   36.6640 Cl    605  CCL605     -0.0870
   3165 CL         19.2480   -1.7040   37.6730 Cl    605  CCL605     -0.0870
   3166 HX         18.1310    0.2980   36.9410 H     605  CCL605      0.0806
   3167 C          32.5120    4.6910    9.2580 C.3   606  CCL606      0.1805
   3168 CL         32.8900    5.0730    7.5590 Cl    606  CCL606     -0.0870
   3169 CL         32.7490    5.9820   10.4910 Cl    606  CCL606     -0.0870
   3170 CL         33.4560    3.2460    9.6370 Cl    606  CCL606     -0.0870
   3171 HX         31.4580    4.4580    9.1380 H     606  CCL606      0.0806
   3172 C          40.3320   36.7150   37.9380 C.3   607  CCL607      0.1805
   3173 CL         40.0400   35.9290   36.4630 Cl    607  CCL607     -0.0870
   3174 CL         39.9320   38.4440   37.7840 Cl    607  CCL607     -0.0870
   3175 CL         42.0130   36.5450   38.6350 Cl    607  CCL607     -0.0870
   3176 HX         39.6660   36.2570   38.6640 H     607  CCL607      0.0806
   3177 C           9.6150   20.2980   41.7310 C.3   608  CCL608      0.1805
   3178 CL          9.1960   20.1620   40.0020 Cl    608  CCL608     -0.0870
   3179 CL          9.3290   18.6580   42.4460 Cl    608  CCL608     -0.0870
   3180 CL          8.9540   21.7370   42.5870 Cl    608  CCL608     -0.0870
   3181 HX         10.6800   20.5120   41.7380 H     608  CCL608      0.0806
   3182 C          -2.7860   36.5260   12.0360 C.3   609  CCL609      0.1805
   3183 CL         -2.2710   35.4690   13.3120 Cl    609  CCL609     -0.0870
   3184 CL         -3.0400   38.0870   12.5760 Cl    609  CCL609     -0.0870
   3185 CL         -4.3540   35.9540   11.4700 Cl    609  CCL609     -0.0870
   3186 HX         -2.0420   36.5050   11.2450 H     609  CCL609      0.0806
   3187 C          37.6510    7.3820   17.7570 C.3   610  CCL610      0.1805
   3188 CL         37.3270    7.3600   16.0300 Cl    610  CCL610     -0.0870
   3189 CL         36.1690    7.5420   18.6530 Cl    610  CCL610     -0.0870
   3190 CL         38.8120    8.6740   18.3090 Cl    610  CCL610     -0.0870
   3191 HX         37.9880    6.4430   18.1860 H     610  CCL610      0.0806
   3192 C           7.0030   10.1910   23.4440 C.3   611  CCL611      0.1805
   3193 CL          8.4240   11.2830   23.5660 Cl    611  CCL611     -0.0870
   3194 CL          6.8570    9.1850   24.8220 Cl    611  CCL611     -0.0870
   3195 CL          7.1060    9.1750   22.0340 Cl    611  CCL611     -0.0870
   3196 HX          6.0840   10.7660   23.3790 H     611  CCL611      0.0806
   3197 C          22.5410   18.8540   -0.1470 C.3   612  CCL612      0.1805
   3198 CL         22.7120   17.2810   -0.9190 Cl    612  CCL612     -0.0870
   3199 CL         21.2320   19.7980   -0.8950 Cl    612  CCL612     -0.0870
   3200 CL         24.0000   19.7480   -0.0650 Cl    612  CCL612     -0.0870
   3201 HX         22.3360   18.6620    0.9020 H     612  CCL612      0.0806
   3202 C          10.0150   -8.6890   20.4590 C.3   613  CCL613      0.1805
   3203 CL          8.7950   -7.7180   19.6130 Cl    613  CCL613     -0.0870
   3204 CL          9.8900   -8.6230   22.2810 Cl    613  CCL613     -0.0870
   3205 CL         11.6700   -8.3590   19.9760 Cl    613  CCL613     -0.0870
   3206 HX          9.9040   -9.7500   20.2560 H     613  CCL613      0.0806
   3207 C          42.9860    8.1990   35.6680 C.3   614  CCL614      0.1805
   3208 CL         41.5710    9.0700   35.9900 Cl    614  CCL614     -0.0870
   3209 CL         42.9820    8.0680   33.8810 Cl    614  CCL614     -0.0870
   3210 CL         43.0100    6.5480   36.3860 Cl    614  CCL614     -0.0870
   3211 HX         43.9100    8.6860   35.9670 H     614  CCL614      0.0806
   3212 C           3.9510   12.5550   17.4040 C.3   615  CCL615      0.1805
   3213 CL          2.9390   13.8560   18.0090 Cl    615  CCL615     -0.0870
   3214 CL          5.0150   11.8490   18.6010 Cl    615  CCL615     -0.0870
   3215 CL          4.6280   13.0580   15.8480 Cl    615  CCL615     -0.0870
   3216 HX          3.2700   11.7800   17.0670 H     615  CCL615      0.0806
   3217 C          -6.2260   13.6980   12.0330 C.3   616  CCL616      0.1805
   3218 CL         -5.7340   15.3910   11.7090 Cl    616  CCL616     -0.0870
   3219 CL         -7.2240   13.0390   10.6730 Cl    616  CCL616     -0.0870
   3220 CL         -7.0070   13.5900   13.6440 Cl    616  CCL616     -0.0870
   3221 HX         -5.3120   13.1300   12.1860 H     616  CCL616      0.0806
   3222 C          42.7340   10.4960   43.7710 C.3   617  CCL617      0.1805
   3223 CL         42.4210    8.8740   44.2870 Cl    617  CCL617     -0.0870
   3224 CL         43.0780   10.5080   41.9670 Cl    617  CCL617     -0.0870
   3225 CL         44.0100   11.3080   44.6700 Cl    617  CCL617     -0.0870
   3226 HX         41.7870   10.9860   43.9790 H     617  CCL617      0.0806
   3227 C          -8.0520   30.5740    9.5080 C.3   618  CCL618      0.1805
   3228 CL         -7.5090   29.7720    8.0530 Cl    618  CCL618     -0.0870
   3229 CL         -9.7770   30.1550    9.8620 Cl    618  CCL618     -0.0870
   3230 CL         -7.8760   32.3190    9.2960 Cl    618  CCL618     -0.0870
   3231 HX         -7.3910   30.2640   10.3120 H     618  CCL618      0.0806
   3232 C          12.9750   -7.9960   28.8010 C.3   619  CCL619      0.1805
   3233 CL         11.4570   -8.0610   29.6970 Cl    619  CCL619     -0.0870
   3234 CL         13.0760   -9.1160   27.4580 Cl    619  CCL619     -0.0870
   3235 CL         14.3810   -8.0480   29.8630 Cl    619  CCL619     -0.0870
   3236 HX         12.9670   -7.0000   28.3690 H     619  CCL619      0.0806
   3237 C          -3.4260   38.0630    7.8450 C.3   620  CCL620      0.1805
   3238 CL         -4.8360   37.2920    7.2130 Cl    620  CCL620     -0.0870
   3239 CL         -3.7150   39.2010    9.2000 Cl    620  CCL620     -0.0870
   3240 CL         -2.5170   38.8150    6.5830 Cl    620  CCL620     -0.0870
   3241 HX         -2.7300   37.3680    8.3060 H     620  CCL620      0.0806
   3242 C          28.8960   33.2000    8.7940 C.3   621  CCL621      0.1805
   3243 CL         28.0680   33.9780    7.5330 Cl    621  CCL621     -0.0870
   3244 CL         28.9980   31.5100    8.2300 Cl    621  CCL621     -0.0870
   3245 CL         28.1050   33.4060   10.3320 Cl    621  CCL621     -0.0870
   3246 HX         29.8340   33.7460    8.8220 H     621  CCL621      0.0806
   3247 C          45.3730    7.0160   21.6350 C.3   622  CCL622      0.1805
   3248 CL         43.6630    7.3350   21.7310 Cl    622  CCL622     -0.0870
   3249 CL         46.0510    7.0320   19.9920 Cl    622  CCL622     -0.0870
   3250 CL         45.8310    5.5630   22.4700 Cl    622  CCL622     -0.0870
   3251 HX         45.9250    7.8230   22.1070 H     622  CCL622      0.0806
   3252 C          40.1000    0.5200   21.0790 C.3   623  CCL623      0.1805
   3253 CL         40.8140   -0.5520   19.9140 Cl    623  CCL623     -0.0870
   3254 CL         39.7170    2.0260   20.3230 Cl    623  CCL623     -0.0870
   3255 CL         41.1440    0.7090   22.5760 Cl    623  CCL623     -0.0870
   3256 HX         39.2110    0.0030   21.4280 H     623  CCL623      0.0806
   3257 C          27.1460    6.8020   35.8870 C.3   624  CCL624      0.1805
   3258 CL         28.0390    5.8620   34.7060 Cl    624  CCL624     -0.0870
   3259 CL         25.7150    7.5510   35.2020 Cl    624  CCL624     -0.0870
   3260 CL         28.1600    8.0740   36.5010 Cl    624  CCL624     -0.0870
   3261 HX         26.8380    6.1960   36.7340 H     624  CCL624      0.0806
   3262 C          35.2250   45.5810   35.6400 C.3   625  CCL625      0.1805
   3263 CL         35.0120   46.7290   34.3160 Cl    625  CCL625     -0.0870
   3264 CL         36.8170   44.8170   35.3210 Cl    625  CCL625     -0.0870
   3265 CL         33.9550   44.3810   35.5330 Cl    625  CCL625     -0.0870
   3266 HX         35.2020   46.1590   36.5590 H     625  CCL625      0.0806
   3267 C          -0.8520   27.4670   40.5310 C.3   626  CCL626      0.1805
   3268 CL         -1.5390   26.0720   39.6790 Cl    626  CCL626     -0.0870
   3269 CL         -1.6090   28.9840   40.0190 Cl    626  CCL626     -0.0870
   3270 CL          0.9370   27.5340   40.5540 Cl    626  CCL626     -0.0870
   3271 HX         -1.1280   27.3980   41.5790 H     626  CCL626      0.0806
   3272 C           5.9630    3.6120   45.7380 C.3   627  CCL627      0.1805
   3273 CL          4.6950    4.6090   46.4480 Cl    627  CCL627     -0.0870
   3274 CL          6.9640    2.8260   46.9260 Cl    627  CCL627     -0.0870
   3275 CL          6.9990    4.6090   44.7060 Cl    627  CCL627     -0.0870
   3276 HX          5.4780    2.8760   45.1030 H     627  CCL627      0.0806
   3277 C          -2.6630   34.6880   29.8660 C.3   628  CCL628      0.1805
   3278 CL         -3.9080   35.6660   30.3930 Cl    628  CCL628     -0.0870
   3279 CL         -1.2360   35.5280   29.3140 Cl    628  CCL628     -0.0870
   3280 CL         -3.2640   33.6320   28.5370 Cl    628  CCL628     -0.0870
   3281 HX         -2.2800   34.0580   30.6630 H     628  CCL628      0.0806
   3282 C          32.7450   37.6500   30.3530 C.3   629  CCL629      0.1805
   3283 CL         32.2350   36.9630   31.8870 Cl    629  CCL629     -0.0870
   3284 CL         32.7520   39.3410   30.6080 Cl    629  CCL629     -0.0870
   3285 CL         31.6140   37.3170   29.0290 Cl    629  CCL629     -0.0870
   3286 HX         33.7530   37.3340   30.1010 H     629  CCL629      0.0806
   3287 C          24.1720   17.3550   39.8810 C.3   630  CCL630      0.1805
   3288 CL         23.4180   17.6330   41.4890 Cl    630  CCL630     -0.0870
   3289 CL         24.4810   18.7550   38.9830 Cl    630  CCL630     -0.0870
   3290 CL         23.2850   16.3000   38.8050 Cl    630  CCL630     -0.0870
   3291 HX         25.1700   16.9700   40.0660 H     630  CCL630      0.0806
   3292 C          26.0460   22.2070   36.2610 C.3   631  CCL631      0.1805
   3293 CL         25.4620   23.2220   34.9950 Cl    631  CCL631     -0.0870
   3294 CL         26.9460   20.8350   35.6190 Cl    631  CCL631     -0.0870
   3295 CL         24.7570   21.6040   37.1990 Cl    631  CCL631     -0.0870
   3296 HX         26.7720   22.7470   36.8620 H     631  CCL631      0.0806
   3297 C          10.7680   -3.9740   25.1180 C.3   632  CCL632      0.1805
   3298 CL         11.8250   -2.6130   24.9450 Cl    632  CCL632     -0.0870
   3299 CL          9.1360   -3.6820   24.5840 Cl    632  CCL632     -0.0870
   3300 CL         10.9560   -4.6580   26.8120 Cl    632  CCL632     -0.0870
   3301 HX         11.1030   -4.8370   24.5490 H     632  CCL632      0.0806
   3302 C          49.6990   11.5200   14.1700 C.3   633  CCL633      0.1805
   3303 CL         49.4730   10.1380   15.1380 Cl    633  CCL633     -0.0870
   3304 CL         48.8040   11.5040   12.6320 Cl    633  CCL633     -0.0870
   3305 CL         51.4390   11.9770   14.0890 Cl    633  CCL633     -0.0870
   3306 HX         49.2060   12.3320   14.6970 H     633  CCL633      0.0806
   3307 C           8.4180   16.2810    5.5420 C.3   634  CCL634      0.1805
   3308 CL          8.2940   14.5050    5.7780 Cl    634  CCL634     -0.0870
   3309 CL          9.8130   16.6050    6.5600 Cl    634  CCL634     -0.0870
   3310 CL          6.9380   17.0910    6.0480 Cl    634  CCL634     -0.0870
   3311 HX          8.6620   16.5440    4.5170 H     634  CCL634      0.0806
   3312 C          26.1810    2.4890   27.3080 C.3   635  CCL635      0.1805
   3313 CL         25.9690    1.5830   25.7790 Cl    635  CCL635     -0.0870
   3314 CL         26.5770    1.4680   28.5650 Cl    635  CCL635     -0.0870
   3315 CL         24.6760    3.3510   27.5380 Cl    635  CCL635     -0.0870
   3316 HX         26.9440    3.2510   27.1820 H     635  CCL635      0.0806
   3317 C          48.7580   11.9590   31.7890 C.3   636  CCL636      0.1805
   3318 CL         48.2850   11.8450   30.1520 Cl    636  CCL636     -0.0870
   3319 CL         47.6920   12.9740   32.6380 Cl    636  CCL636     -0.0870
   3320 CL         50.4300   12.4300   32.0760 Cl    636  CCL636     -0.0870
   3321 HX         48.6940   11.0100   32.3120 H     636  CCL636      0.0806
   3322 C          26.5340    6.7120   29.7640 C.3   637  CCL637      0.1805
   3323 CL         26.7580    6.0910   28.1380 Cl    637  CCL637     -0.0870
   3324 CL         26.6490    8.4450   29.8440 Cl    637  CCL637     -0.0870
   3325 CL         27.6750    6.0180   30.9190 Cl    637  CCL637     -0.0870
   3326 HX         25.5410    6.4480   30.1160 H     637  CCL637      0.0806
   3327 C          41.6330   16.4420   24.5550 C.3   638  CCL638      0.1805
   3328 CL         41.6210   17.0000   22.9120 Cl    638  CCL638     -0.0870
   3329 CL         42.6000   14.9300   24.6000 Cl    638  CCL638     -0.0870
   3330 CL         40.0010   16.1700   25.1940 Cl    638  CCL638     -0.0870
   3331 HX         42.2290   17.1190   25.1590 H     638  CCL638      0.0806
   3332 C          43.5990    8.9810    8.9100 C.3   639  CCL639      0.1805
   3333 CL         43.1590    8.4310   10.5890 Cl    639  CCL639     -0.0870
   3334 CL         44.8050   10.2580    8.9370 Cl    639  CCL639     -0.0870
   3335 CL         42.1630    9.5930    8.0720 Cl    639  CCL639     -0.0870
   3336 HX         44.0150    8.1150    8.4030 H     639  CCL639      0.0806
   3337 C          22.6310   28.6490   26.0340 C.3   640  CCL640      0.1805
   3338 CL         24.2530   28.6400   25.1240 Cl    640  CCL640     -0.0870
   3339 CL         21.6990   30.1790   25.9400 Cl    640  CCL640     -0.0870
   3340 CL         22.9080   28.1280   27.6810 Cl    640  CCL640     -0.0870
   3341 HX         22.0530   27.9140   25.4810 H     640  CCL640      0.0806
   3342 C           2.7560   20.1440    6.5330 C.3   641  CCL641      0.1805
   3343 CL          1.4590   19.6340    7.4980 Cl    641  CCL641     -0.0870
   3344 CL          2.2560   20.5960    4.9060 Cl    641  CCL641     -0.0870
   3345 CL          4.0330   18.9320    6.5700 Cl    641  CCL641     -0.0870
   3346 HX          3.1810   21.0220    7.0110 H     641  CCL641      0.0806
   3347 C          33.5030   19.9650   13.1430 C.3   642  CCL642      0.1805
   3348 CL         31.9490   19.2030   12.8960 Cl    642  CCL642     -0.0870
   3349 CL         34.0750   20.9540   11.6970 Cl    642  CCL642     -0.0870
   3350 CL         34.6440   18.6860   13.5760 Cl    642  CCL642     -0.0870
   3351 HX         33.4240   20.6110   14.0130 H     642  CCL642      0.0806
   3352 C          21.6670   37.9480   39.6740 C.3   643  CCL643      0.1805
   3353 CL         22.3910   37.6090   38.1170 Cl    643  CCL643     -0.0870
   3354 CL         22.7580   38.5780   40.8860 Cl    643  CCL643     -0.0870
   3355 CL         20.5630   36.7180   40.2410 Cl    643  CCL643     -0.0870
   3356 HX         21.0100   38.7630   39.3850 H     643  CCL643      0.0806
   3357 C           0.6320   20.6980   35.1460 C.3   644  CCL644      0.1805
   3358 CL          0.9190   18.9820   34.9400 Cl    644  CCL644     -0.0870
   3359 CL         -1.0240   21.2660   35.1810 Cl    644  CCL644     -0.0870
   3360 CL          1.4800   21.6100   33.9080 Cl    644  CCL644     -0.0870
   3361 HX          1.1260   20.8570   36.1000 H     644  CCL644      0.0806
   3362 C          -0.1570    5.0200   24.3430 C.3   645  CCL645      0.1805
   3363 CL          0.3500    6.2130   25.5680 Cl    645  CCL645     -0.0870
   3364 CL         -1.8330    5.1940   23.7220 Cl    645  CCL645     -0.0870
   3365 CL          0.2220    3.3340   24.8570 Cl    645  CCL645     -0.0870
   3366 HX          0.5240    5.0880   23.5000 H     645  CCL645      0.0806
   3367 C          36.1160   12.4000   20.3770 C.3   646  CCL646      0.1805
   3368 CL         36.7220   13.5480   21.5310 Cl    646  CCL646     -0.0870
   3369 CL         34.3630   12.6760   20.0540 Cl    646  CCL646     -0.0870
   3370 CL         36.4200   10.7260   20.8500 Cl    646  CCL646     -0.0870
   3371 HX         36.6260   12.5450   19.4290 H     646  CCL646      0.0806
   3372 C          11.1660   20.6560   19.8490 C.3   647  CCL647      0.1805
   3373 CL         11.7100   22.2980   19.3250 Cl    647  CCL647     -0.0870
   3374 CL         10.7540   19.7030   18.3660 Cl    647  CCL647     -0.0870
   3375 CL          9.9290   20.6960   21.1280 Cl    647  CCL647     -0.0870
   3376 HX         12.0650   20.1380   20.1670 H     647  CCL647      0.0806
   3377 C          22.1620   10.4810   32.5730 C.3   648  CCL648      0.1805
   3378 CL         21.0330    9.5480   33.5120 Cl    648  CCL648     -0.0870
   3379 CL         21.6480   10.3410   30.9100 Cl    648  CCL648     -0.0870
   3380 CL         23.8030    9.7830   32.8430 Cl    648  CCL648     -0.0870
   3381 HX         22.0460   11.4770   32.9900 H     648  CCL648      0.0806
   3382 C          22.0620   47.8930   13.3060 C.3   649  CCL649      0.1805
   3383 CL         22.4200   46.1620   13.1460 Cl    649  CCL649     -0.0870
   3384 CL         20.3740   48.1210   12.8860 Cl    649  CCL649     -0.0870
   3385 CL         23.0650   48.9120   12.1870 Cl    649  CCL649     -0.0870
   3386 HX         22.2280   48.2860   14.3050 H     649  CCL649      0.0806
   3387 C          -5.0140   33.0620   36.7400 C.3   650  CCL650      0.1805
   3388 CL         -6.3140   34.2730   36.7280 Cl    650  CCL650     -0.0870
   3389 CL         -3.4310   33.8770   36.6780 Cl    650  CCL650     -0.0870
   3390 CL         -5.0530   31.8780   35.5170 Cl    650  CCL650     -0.0870
   3391 HX         -5.1290   32.4480   37.6290 H     650  CCL650      0.0806
   3392 C          30.0370   38.1810    8.0870 C.3   651  CCL651      0.1805
   3393 CL         31.2370   39.4770    8.2990 Cl    651  CCL651     -0.0870
   3394 CL         28.5240   38.5730    8.7760 Cl    651  CCL651     -0.0870
   3395 CL         30.8000   36.7130    8.6270 Cl    651  CCL651     -0.0870
   3396 HX         29.8140   38.1360    7.0250 H     651  CCL651      0.0806
   3397 C          13.9260   21.3080   27.5640 C.3   652  CCL652      0.1805
   3398 CL         13.5970   19.8100   28.5280 Cl    652  CCL652     -0.0870
   3399 CL         13.0990   21.4740   26.0180 Cl    652  CCL652     -0.0870
   3400 CL         15.6950   21.7790   27.4490 Cl    652  CCL652     -0.0870
   3401 HX         13.5120   22.1350   28.1320 H     652  CCL652      0.0806
   3402 C          32.2710    5.4830   15.4290 C.3   653  CCL653      0.1805
   3403 CL         33.3680    4.7860   16.6590 Cl    653  CCL653     -0.0870
   3404 CL         33.2300    5.4390   13.9670 Cl    653  CCL653     -0.0870
   3405 CL         31.7540    7.0680   15.9070 Cl    653  CCL653     -0.0870
   3406 HX         31.3720    4.8920   15.2800 H     653  CCL653      0.0806
   3407 C          20.6030   14.1290   48.6120 C.3   654  CCL654      0.1805
   3408 CL         19.7570   12.7470   47.8690 Cl    654  CCL654     -0.0870
   3409 CL         20.8360   13.7530   50.2870 Cl    654  CCL654     -0.0870
   3410 CL         19.6490   15.5980   48.4670 Cl    654  CCL654     -0.0870
   3411 HX         21.5250   14.3570   48.0840 H     654  CCL654      0.0806
   3412 C          30.7820   23.4870   14.5160 C.3   655  CCL655      0.1805
   3413 CL         30.8960   24.7170   15.7470 Cl    655  CCL655     -0.0870
   3414 CL         30.2270   21.8800   15.0060 Cl    655  CCL655     -0.0870
   3415 CL         32.4290   23.3360   13.8640 Cl    655  CCL655     -0.0870
   3416 HX         30.1040   23.8640   13.7560 H     655  CCL655      0.0806
   3417 C          34.7630   24.0310   10.6230 C.3   656  CCL656      0.1805
   3418 CL         35.3230   25.5560   11.3210 Cl    656  CCL656     -0.0870
   3419 CL         35.6250   23.6700    9.0140 Cl    656  CCL656     -0.0870
   3420 CL         33.0780   24.2560   10.1710 Cl    656  CCL656     -0.0870
   3421 HX         34.9230   23.2410   11.3510 H     656  CCL656      0.0806
   3422 C          10.1260   10.4040   18.9780 C.3   657  CCL657      0.1805
   3423 CL         10.6470    9.4540   20.4300 Cl    657  CCL657     -0.0870
   3424 CL         11.4880   11.0860   18.0990 Cl    657  CCL657     -0.0870
   3425 CL          8.9100   11.5700   19.6240 Cl    657  CCL657     -0.0870
   3426 HX          9.6140    9.7700   18.2600 H     657  CCL657      0.0806
   3427 C          23.0410   -1.0640   46.6690 C.3   658  CCL658      0.1805
   3428 CL         23.6270   -1.8920   48.0560 Cl    658  CCL658     -0.0870
   3429 CL         22.3060   -2.1510   45.4480 Cl    658  CCL658     -0.0870
   3430 CL         24.1610    0.1740   46.0220 Cl    658  CCL658     -0.0870
   3431 HX         22.2050   -0.4750   47.0350 H     658  CCL658      0.0806
   3432 C           1.4480   39.9960    9.1570 C.3   659  CCL659      0.1805
   3433 CL          0.3660   38.9630    9.9920 Cl    659  CCL659     -0.0870
   3434 CL          1.5710   41.5390    9.9540 Cl    659  CCL659     -0.0870
   3435 CL          1.0010   40.1120    7.3860 Cl    659  CCL659     -0.0870
   3436 HX          2.3780   39.4440    9.2610 H     659  CCL659      0.0806
   3437 C           0.0240   16.6020    4.3680 C.3   660  CCL660      0.1805
   3438 CL          1.3150   17.5980    3.6930 Cl    660  CCL660     -0.0870
   3439 CL         -1.2890   17.7020    4.9270 Cl    660  CCL660     -0.0870
   3440 CL          0.7130   15.6140    5.7400 Cl    660  CCL660     -0.0870
   3441 HX         -0.3550   16.0750    3.4970 H     660  CCL660      0.0806
   3442 C          12.7580    1.8230   27.2030 C.3   661  CCL661      0.1805
   3443 CL         13.0000    3.5520   26.8050 Cl    661  CCL661     -0.0870
   3444 CL         11.3190    1.2910   26.3380 Cl    661  CCL661     -0.0870
   3445 CL         12.6930    1.5120   28.8880 Cl    661  CCL661     -0.0870
   3446 HX         13.6700    1.3440   26.8580 H     661  CCL661      0.0806
   3447 C          18.7080   19.6210   40.6660 C.3   662  CCL662      0.1805
   3448 CL         20.1970   18.7760   40.5130 Cl    662  CCL662     -0.0870
   3449 CL         17.6660   18.7030   41.7880 Cl    662  CCL662     -0.0870
   3450 CL         17.8020   19.6590   39.1340 Cl    662  CCL662     -0.0870
   3451 HX         18.7820   20.5880   41.1550 H     662  CCL662      0.0806
   3452 C          21.6240   45.1120    2.7630 C.3   663  CCL663      0.1805
   3453 CL         20.7620   45.0930    4.2490 Cl    663  CCL663     -0.0870
   3454 CL         20.6810   44.3840    1.4470 Cl    663  CCL663     -0.0870
   3455 CL         23.0960   44.1860    2.9340 Cl    663  CCL663     -0.0870
   3456 HX         21.9490   46.1010    2.4550 H     663  CCL663      0.0806
   3457 C          16.3700   29.4900   34.3270 C.3   664  CCL664      0.1805
   3458 CL         18.0650   28.9280   34.2500 Cl    664  CCL664     -0.0870
   3459 CL         15.4710   29.1080   32.8820 Cl    664  CCL664     -0.0870
   3460 CL         16.3140   31.2430   34.5970 Cl    664  CCL664     -0.0870
   3461 HX         15.8830   28.9660   35.1440 H     664  CCL664      0.0806
   3462 C          10.8260   -6.0730   14.6550 C.3   665  CCL665      0.1805
   3463 CL         10.7560   -5.8180   16.4190 Cl    665  CCL665     -0.0870
   3464 CL          9.3300   -6.8250   14.1880 Cl    665  CCL665     -0.0870
   3465 CL         12.1840   -7.0920   14.2580 Cl    665  CCL665     -0.0870
   3466 HX         10.9260   -5.0900   14.2060 H     665  CCL665      0.0806
   3467 C           4.6690   13.0430    6.3090 C.3   666  CCL666      0.1805
   3468 CL          3.2600   12.5970    7.1990 Cl    666  CCL666     -0.0870
   3469 CL          4.2030   14.3130    5.1350 Cl    666  CCL666     -0.0870
   3470 CL          5.3690   11.6800    5.3690 Cl    666  CCL666     -0.0870
   3471 HX          5.4460   13.4500    6.9490 H     666  CCL666      0.0806
   3472 C          15.9940   45.2550    9.6740 C.3   667  CCL667      0.1805
   3473 CL         16.5800   43.6060    9.8910 Cl    667  CCL667     -0.0870
   3474 CL         17.3040   46.3450    9.3240 Cl    667  CCL667     -0.0870
   3475 CL         15.0990   45.9550   11.0830 Cl    667  CCL667     -0.0870
   3476 HX         15.3470   45.2780    8.8020 H     667  CCL667      0.0806
   3477 C          -2.8710   32.6400    8.7340 C.3   668  CCL668      0.1805
   3478 CL         -2.3950   34.1910    9.4530 Cl    668  CCL668     -0.0870
   3479 CL         -2.0710   32.2260    7.1720 Cl    668  CCL668     -0.0870
   3480 CL         -4.6650   32.6810    8.5250 Cl    668  CCL668     -0.0870
   3481 HX         -2.6250   31.8720    9.4610 H     668  CCL668      0.0806
   3482 C          -1.6600   25.2290   26.8710 C.3   669  CCL669      0.1805
   3483 CL         -0.0490   25.1790   27.5120 Cl    669  CCL669     -0.0870
   3484 CL         -1.7050   25.0210   25.1280 Cl    669  CCL669     -0.0870
   3485 CL         -2.5380   26.5900   27.5240 Cl    669  CCL669     -0.0870
   3486 HX         -2.2390   24.4050   27.2760 H     669  CCL669      0.0806
   3487 C          19.4260   10.0090   50.1490 C.3   670  CCL670      0.1805
   3488 CL         18.9870    9.0300   48.7190 Cl    670  CCL670     -0.0870
   3489 CL         20.1750    9.0110   51.4520 Cl    670  CCL670     -0.0870
   3490 CL         18.0030   10.8700   50.6900 Cl    670  CCL670     -0.0870
   3491 HX         20.1180   10.7760   49.8150 H     670  CCL670      0.0806
   3492 C          11.1600   -4.9910   20.7450 C.3   671  CCL671      0.1805
   3493 CL         10.1160   -3.5590   20.9390 Cl    671  CCL671     -0.0870
   3494 CL         12.0500   -5.3690   22.2250 Cl    671  CCL671     -0.0870
   3495 CL         12.1700   -4.7550   19.2680 Cl    671  CCL671     -0.0870
   3496 HX         10.4320   -5.7520   20.4800 H     671  CCL671      0.0806
   3497 C          52.1510    4.9860   33.4510 C.3   672  CCL672      0.1805
   3498 CL         52.6930    5.3120   35.1110 Cl    672  CCL672     -0.0870
   3499 CL         52.1460    3.2800   33.0650 Cl    672  CCL672     -0.0870
   3500 CL         53.1360    6.0320   32.3430 Cl    672  CCL672     -0.0870
   3501 HX         51.1230    5.3350   33.4330 H     672  CCL672      0.0806
   3502 C          11.8520   -1.9040   47.1750 C.3   673  CCL673      0.1805
   3503 CL         13.1480   -2.6240   48.1590 Cl    673  CCL673     -0.0870
   3504 CL         12.0060   -2.6390   45.5850 Cl    673  CCL673     -0.0870
   3505 CL         11.8510   -0.0830   47.1540 Cl    673  CCL673     -0.0870
   3506 HX         10.8780   -2.2160   47.5410 H     673  CCL673      0.0806
   3507 C           7.0390   15.6040   49.9260 C.3   674  CCL674      0.1805
   3508 CL          5.6280   16.4640   50.5320 Cl    674  CCL674     -0.0870
   3509 CL          8.0430   16.6270   49.0380 Cl    674  CCL674     -0.0870
   3510 CL          6.5920   14.1680   49.0250 Cl    674  CCL674     -0.0870
   3511 HX          7.6440   15.3840   50.8010 H     674  CCL674      0.0806
   3512 C           5.5950   21.0750   37.7330 C.3   675  CCL675      0.1805
   3513 CL          5.7720   22.0870   36.3340 Cl    675  CCL675     -0.0870
   3514 CL          6.7720   19.7460   37.6150 Cl    675  CCL675     -0.0870
   3515 CL          3.9710   20.4780   38.0430 Cl    675  CCL675     -0.0870
   3516 HX          5.9590   21.6270   38.5950 H     675  CCL675      0.0806
   3517 C          13.1060   24.8470   41.8570 C.3   676  CCL676      0.1805
   3518 CL         12.8690   26.0780   40.6360 Cl    676  CCL676     -0.0870
   3519 CL         11.5750   24.3090   42.5000 Cl    676  CCL676     -0.0870
   3520 CL         14.1880   25.2850   43.1760 Cl    676  CCL676     -0.0870
   3521 HX         13.4230   23.9630   41.3110 H     676  CCL676      0.0806
   3522 C           3.0900   18.6960   15.6100 C.3   677  CCL677      0.1805
   3523 CL          2.1660   18.2140   17.0810 Cl    677  CCL677     -0.0870
   3524 CL          4.5700   17.7190   15.4470 Cl    677  CCL677     -0.0870
   3525 CL          3.3990   20.3920   15.7030 Cl    677  CCL677     -0.0870
   3526 HX          2.4720   18.4180   14.7610 H     677  CCL677      0.0806
   3527 C          20.6420   -8.5190   39.8670 C.3   678  CCL678      0.1805
   3528 CL         22.2450   -7.9390   39.6740 Cl    678  CCL678     -0.0870
   3529 CL         19.5290   -7.1610   39.4890 Cl    678  CCL678     -0.0870
   3530 CL         20.4770   -9.2040   41.4910 Cl    678  CCL678     -0.0870
   3531 HX         20.4110   -9.3620   39.2220 H     678  CCL678      0.0806
   3532 C          26.6430   20.6910   48.3490 C.3   679  CCL679      0.1805
   3533 CL         25.4380   20.3380   47.1710 Cl    679  CCL679     -0.0870
   3534 CL         26.0200   20.9520   49.9620 Cl    679  CCL679     -0.0870
   3535 CL         27.5510   22.0420   47.7690 Cl    679  CCL679     -0.0870
   3536 HX         27.3680   19.8930   48.4780 H     679  CCL679      0.0806
   3537 C          36.2660   36.8460    6.8120 C.3   680  CCL680      0.1805
   3538 CL         35.9280   36.3000    8.4280 Cl    680  CCL680     -0.0870
   3539 CL         37.8230   36.3110    6.1590 Cl    680  CCL680     -0.0870
   3540 CL         35.9610   38.6080    6.7410 Cl    680  CCL680     -0.0870
   3541 HX         35.5210   36.5210    6.0920 H     680  CCL680      0.0806
   3542 C          39.4340   33.2260   27.4650 C.3   681  CCL681      0.1805
   3543 CL         40.2580   34.3760   28.4330 Cl    681  CCL681     -0.0870
   3544 CL         40.5330   31.8550   27.1480 Cl    681  CCL681     -0.0870
   3545 CL         38.7610   34.0800   26.0540 Cl    681  CCL681     -0.0870
   3546 HX         38.5990   32.8330   28.0390 H     681  CCL681      0.0806
   3547 C          28.7660   21.4540   11.5790 C.3   682  CCL682      0.1805
   3548 CL         28.4260   19.8530   12.1820 Cl    682  CCL682     -0.0870
   3549 CL         27.3280   22.1460   10.8290 Cl    682  CCL682     -0.0870
   3550 CL         30.1820   21.3990   10.4710 Cl    682  CCL682     -0.0870
   3551 HX         29.0890   22.0410   12.4340 H     682  CCL682      0.0806
   3552 C          -7.7820   26.7660   14.4320 C.3   683  CCL683      0.1805
   3553 CL         -7.7570   24.9990   14.1260 Cl    683  CCL683     -0.0870
   3554 CL         -7.5080   27.1800   16.0720 Cl    683  CCL683     -0.0870
   3555 CL         -9.3200   27.5000   13.9250 Cl    683  CCL683     -0.0870
   3556 HX         -7.0350   27.2870   13.8400 H     683  CCL683      0.0806
   3557 C           3.9340   26.4320   20.0080 C.3   684  CCL684      0.1805
   3558 CL          3.3380   26.2720   21.6780 Cl    684  CCL684     -0.0870
   3559 CL          4.1130   28.1890   19.6330 Cl    684  CCL684     -0.0870
   3560 CL          2.7910   25.6010   18.9720 Cl    684  CCL684     -0.0870
   3561 HX          4.8900   25.9310   19.8910 H     684  CCL684      0.0806
   3562 C          -6.5300   22.0960   16.4260 C.3   685  CCL685      0.1805
   3563 CL         -7.4180   21.5260   17.8850 Cl    685  CCL685     -0.0870
   3564 CL         -5.9250   20.7500   15.4480 Cl    685  CCL685     -0.0870
   3565 CL         -5.1520   23.1790   16.9060 Cl    685  CCL685     -0.0870
   3566 HX         -7.2570   22.5680   15.7710 H     685  CCL685      0.0806
   3567 C          27.8120   39.4340   29.6260 C.3   686  CCL686      0.1805
   3568 CL         26.4780   40.2290   30.4680 Cl    686  CCL686     -0.0870
   3569 CL         28.0910   37.7280   30.1810 Cl    686  CCL686     -0.0870
   3570 CL         29.3610   40.3240   29.6570 Cl    686  CCL686     -0.0870
   3571 HX         27.6210   39.3580   28.5590 H     686  CCL686      0.0806
   3572 C          17.8860   41.0690    2.5450 C.3   687  CCL687      0.1805
   3573 CL         17.1190   42.6180    3.0110 Cl    687  CCL687     -0.0870
   3574 CL         17.4100   39.9360    3.8270 Cl    687  CCL687     -0.0870
   3575 CL         19.6380   41.2850    2.2660 Cl    687  CCL687     -0.0870
   3576 HX         17.3170   40.7690    1.6700 H     687  CCL687      0.0806
   3577 C          35.5160    1.9440   18.7780 C.3   688  CCL688      0.1805
   3578 CL         35.0600    1.7910   20.5630 Cl    688  CCL688     -0.0870
   3579 CL         36.8320    0.7140   18.4290 Cl    688  CCL688     -0.0870
   3580 CL         36.1700    3.4830   18.5210 Cl    688  CCL688     -0.0870
   3581 HX         34.6960    1.7640   18.0890 H     688  CCL688      0.0806
   3582 C           6.8360    4.0090    8.7520 C.3   689  CCL689      0.1805
   3583 CL          8.1900    3.0610    9.3280 Cl    689  CCL689     -0.0870
   3584 CL          6.0040    3.1210    7.5220 Cl    689  CCL689     -0.0870
   3585 CL          7.3590    5.5520    8.1470 Cl    689  CCL689     -0.0870
   3586 HX          6.0740    4.2810    9.4770 H     689  CCL689      0.0806
   3587 C          22.4590   -3.7890   14.7520 C.3   690  CCL690      0.1805
   3588 CL         22.5110   -2.1750   15.3940 Cl    690  CCL690     -0.0870
   3589 CL         24.2230   -4.3070   14.4370 Cl    690  CCL690     -0.0870
   3590 CL         21.4540   -3.9480   13.3120 Cl    690  CCL690     -0.0870
   3591 HX         22.0000   -4.4080   15.5180 H     690  CCL690      0.0806
   3592 C          12.6720   33.7220   42.1180 C.3   691  CCL691      0.1805
   3593 CL         13.4880   35.2200   42.0810 Cl    691  CCL691     -0.0870
   3594 CL         12.3810   33.0190   40.6110 Cl    691  CCL691     -0.0870
   3595 CL         11.1780   33.9480   43.0450 Cl    691  CCL691     -0.0870
   3596 HX         13.2900   33.0400   42.6950 H     691  CCL691      0.0806
   3597 C          19.0240   13.1130   42.3800 C.3   692  CCL692      0.1805
   3598 CL         18.8320   14.8140   43.0990 Cl    692  CCL692     -0.0870
   3599 CL         17.6090   12.0110   42.4400 Cl    692  CCL692     -0.0870
   3600 CL         20.4860   12.4070   42.8540 Cl    692  CCL692     -0.0870
   3601 HX         19.1250   13.3500   41.3250 H     692  CCL692      0.0806
   3602 C          -2.6270   28.3030   35.4530 C.3   693  CCL693      0.1805
   3603 CL         -2.3570   29.9640   35.8590 Cl    693  CCL693     -0.0870
   3604 CL         -1.9900   27.9580   33.8290 Cl    693  CCL693     -0.0870
   3605 CL         -4.3000   27.8460   35.6530 Cl    693  CCL693     -0.0870
   3606 HX         -2.0290   27.8330   36.2280 H     693  CCL693      0.0806
   3607 C           6.7070   12.5780   27.5750 C.3   694  CCL694      0.1805
   3608 CL          5.8390   12.9580   26.1800 Cl    694  CCL694     -0.0870
   3609 CL          6.1880   11.0310   28.2610 Cl    694  CCL694     -0.0870
   3610 CL          6.6560   13.8940   28.7160 Cl    694  CCL694     -0.0870
   3611 HX          7.7650   12.5710   27.3310 H     694  CCL694      0.0806
   3612 C          28.7260   14.8170   -1.1750 C.3   695  CCL695      0.1805
   3613 CL         30.1800   15.7920   -1.2700 Cl    695  CCL695     -0.0870
   3614 CL         27.8270   14.5250   -2.7380 Cl    695  CCL695     -0.0870
   3615 CL         27.6900   15.3790    0.1350 Cl    695  CCL695     -0.0870
   3616 HX         29.1570   13.8550   -0.9170 H     695  CCL695      0.0806
   3617 C          24.8440   23.8210   14.2490 C.3   696  CCL696      0.1805
   3618 CL         24.0210   24.4610   15.6750 Cl    696  CCL696     -0.0870
   3619 CL         26.4570   24.5220   13.8780 Cl    696  CCL696     -0.0870
   3620 CL         23.7040   23.8680   12.9050 Cl    696  CCL696     -0.0870
   3621 HX         25.0120   22.7540   14.3620 H     696  CCL696      0.0806
   3622 C          23.2220   28.1050    3.7900 C.3   697  CCL697      0.1805
   3623 CL         22.2630   27.8820    2.3570 Cl    697  CCL697     -0.0870
   3624 CL         23.0390   26.6600    4.8640 Cl    697  CCL697     -0.0870
   3625 CL         22.6480   29.5820    4.7140 Cl    697  CCL697     -0.0870
   3626 HX         24.2210   28.2470    3.3890 H     697  CCL697      0.0806
   3627 C           9.1590   10.1880   38.0150 C.3   698  CCL698      0.1805
   3628 CL         10.5050   10.3440   36.9680 Cl    698  CCL698     -0.0870
   3629 CL          9.0400    8.4430   38.3490 Cl    698  CCL698     -0.0870
   3630 CL          7.6090   10.8300   37.3050 Cl    698  CCL698     -0.0870
   3631 HX          9.4320   10.5100   39.0150 H     698  CCL698      0.0806
   3632 C          32.4120   34.1790   12.0820 C.3   699  CCL699      0.1805
   3633 CL         33.6790   33.9290   13.3680 Cl    699  CCL699     -0.0870
   3634 CL         30.9680   35.0510   12.7620 Cl    699  CCL699     -0.0870
   3635 CL         32.2080   32.7100   11.1490 Cl    699  CCL699     -0.0870
   3636 HX         32.8750   34.8910   11.4050 H     699  CCL699      0.0806
   3637 C          44.6660   19.1410    5.8150 C.3   700  CCL700      0.1805
   3638 CL         46.2230   19.9420    6.1060 Cl    700  CCL700     -0.0870
   3639 CL         43.7420   19.0090    7.2490 Cl    700  CCL700     -0.0870
   3640 CL         44.9480   17.6520    4.9180 Cl    700  CCL700     -0.0870
   3641 HX         44.0480   19.7090    5.1260 H     700  CCL700      0.0806
   3642 C          36.8660   37.0650   29.1320 C.3   701  CCL701      0.1805
   3643 CL         37.8300   37.7910   27.8220 Cl    701  CCL701     -0.0870
   3644 CL         35.7110   35.8940   28.5290 Cl    701  CCL701     -0.0870
   3645 CL         36.1360   38.3100   30.1060 Cl    701  CCL701     -0.0870
   3646 HX         37.6880   36.5600   29.6300 H     701  CCL701      0.0806
   3647 C           7.1770    3.1710   14.4430 C.3   702  CCL702      0.1805
   3648 CL          5.8240    3.4130   15.4600 Cl    702  CCL702     -0.0870
   3649 CL          8.6750    3.8290   15.0990 Cl    702  CCL702     -0.0870
   3650 CL          6.8600    3.8790   12.8120 Cl    702  CCL702     -0.0870
   3651 HX          7.1870    2.0930   14.3120 H     702  CCL702      0.0806
   3652 C           9.4480    9.0680    2.5030 C.3   703  CCL703      0.1805
   3653 CL          8.9670    9.7220    4.0690 Cl    703  CCL703     -0.0870
   3654 CL         10.9670    9.8070    1.9350 Cl    703  CCL703     -0.0870
   3655 CL          8.1980    9.1860    1.2380 Cl    703  CCL703     -0.0870
   3656 HX          9.5880    8.0090    2.6960 H     703  CCL703      0.0806
   3657 C          12.4090   32.9020   30.9850 C.3   704  CCL704      0.1805
   3658 CL         12.6930   32.8530   32.7250 Cl    704  CCL704     -0.0870
   3659 CL         10.7890   33.5530   30.6640 Cl    704  CCL704     -0.0870
   3660 CL         12.5430   31.3620   30.0760 Cl    704  CCL704     -0.0870
   3661 HX         13.1100   33.6250   30.5780 H     704  CCL704      0.0806
   3662 C          22.2160   30.5640   18.5880 C.3   705  CCL705      0.1805
   3663 CL         22.0330   30.2120   20.3600 Cl    705  CCL705     -0.0870
   3664 CL         20.6370   31.0320   17.8680 Cl    705  CCL705     -0.0870
   3665 CL         22.9150   29.1700   17.7890 Cl    705  CCL705     -0.0870
   3666 HX         22.8700   31.4230   18.4720 H     705  CCL705      0.0806
   3667 C          22.9560   45.5220   18.1940 C.3   706  CCL706      0.1805
   3668 CL         22.7350   45.9560   16.5660 Cl    706  CCL706     -0.0870
   3669 CL         22.0700   46.6450   19.2020 Cl    706  CCL706     -0.0870
   3670 CL         24.7080   45.3230   18.5010 Cl    706  CCL706     -0.0870
   3671 HX         22.5070   44.5340   18.2350 H     706  CCL706      0.0806
   3672 C          32.5830   26.5000   25.3520 C.3   707  CCL707      0.1805
   3673 CL         34.1090   26.8660   26.0970 Cl    707  CCL707     -0.0870
   3674 CL         32.1130   27.7660   24.1680 Cl    707  CCL707     -0.0870
   3675 CL         31.3480   26.2810   26.4870 Cl    707  CCL707     -0.0870
   3676 HX         32.8290   25.5570   24.8720 H     707  CCL707      0.0806
   3677 C          42.7000    3.9830    7.3650 C.3   708  CCL708      0.1805
   3678 CL         43.5520    5.0040    8.5780 Cl    708  CCL708     -0.0870
   3679 CL         41.7070    2.8510    8.2330 Cl    708  CCL708     -0.0870
   3680 CL         43.7780    3.2100    6.2760 Cl    708  CCL708     -0.0870
   3681 HX         42.0730    4.6530    6.7850 H     708  CCL708      0.0806
   3682 C          -1.2850   17.6020    9.8000 C.3   709  CCL709      0.1805
   3683 CL          0.0780   16.8560    8.9680 Cl    709  CCL709     -0.0870
   3684 CL         -2.4100   16.3630   10.2210 Cl    709  CCL709     -0.0870
   3685 CL         -2.0270   18.7650    8.7770 Cl    709  CCL709     -0.0870
   3686 HX         -0.9630   18.0460   10.7370 H     709  CCL709      0.0806
   3687 C          38.4340   46.5920   39.1250 C.3   710  CCL710      0.1805
   3688 CL         39.3650   45.3570   40.0000 Cl    710  CCL710     -0.0870
   3689 CL         36.8310   46.1060   38.6730 Cl    710  CCL710     -0.0870
   3690 CL         39.2770   47.0820   37.6900 Cl    710  CCL710     -0.0870
   3691 HX         38.3960   47.4570   39.7810 H     710  CCL710      0.0806
   3692 C          39.5650   24.8630   46.7840 C.3   711  CCL711      0.1805
   3693 CL         38.7900   23.7210   47.8420 Cl    711  CCL711     -0.0870
   3694 CL         39.0040   26.5290   47.2000 Cl    711  CCL711     -0.0870
   3695 CL         39.3240   24.5590   45.0410 Cl    711  CCL711     -0.0870
   3696 HX         40.6370   24.8480   46.9550 H     711  CCL711      0.0806
   3697 C           8.3770   -5.3980   29.4550 C.3   712  CCL712      0.1805
   3698 CL          8.8710   -5.7830   31.0630 Cl    712  CCL712     -0.0870
   3699 CL          8.4920   -3.6490   29.1740 Cl    712  CCL712     -0.0870
   3700 CL          6.6820   -5.8870   29.2840 Cl    712  CCL712     -0.0870
   3701 HX          9.0240   -5.9180   28.7550 H     712  CCL712      0.0806
   3702 C          34.0520   42.6540   10.1850 C.3   713  CCL713      0.1805
   3703 CL         34.7110   43.7300    9.0810 Cl    713  CCL713     -0.0870
   3704 CL         34.1990   41.0560    9.5930 Cl    713  CCL713     -0.0870
   3705 CL         32.3390   43.0160   10.4650 Cl    713  CCL713     -0.0870
   3706 HX         34.5130   42.7110   11.1670 H     713  CCL713      0.0806
   3707 C           9.8350   29.2460   43.6870 C.3   714  CCL714      0.1805
   3708 CL          8.5780   29.8390   42.5360 Cl    714  CCL714     -0.0870
   3709 CL         10.7410   30.5370   44.3940 Cl    714  CCL714     -0.0870
   3710 CL         10.8910   28.1000   42.8940 Cl    714  CCL714     -0.0870
   3711 HX          9.2700   28.6780   44.4200 H     714  CCL714      0.0806
   3712 C           7.0110    0.2140   18.6530 C.3   715  CCL715      0.1805
   3713 CL          7.5770    1.8820   19.0800 Cl    715  CCL715     -0.0870
   3714 CL          6.4430    0.2680   16.9690 Cl    715  CCL715     -0.0870
   3715 CL          5.7770   -0.3810   19.7490 Cl    715  CCL715     -0.0870
   3716 HX          7.8470   -0.4780   18.6220 H     715  CCL715      0.0806
   3717 C          35.6290   40.2440   25.6140 C.3   716  CCL716      0.1805
   3718 CL         36.3700   40.9340   27.0750 Cl    716  CCL716     -0.0870
   3719 CL         36.8280   40.0880   24.2920 Cl    716  CCL716     -0.0870
   3720 CL         34.1770   41.1870   25.1990 Cl    716  CCL716     -0.0870
   3721 HX         35.3110   39.2420   25.8880 H     716  CCL716      0.0806
   3722 C           7.8830   35.0990   39.0340 C.3   717  CCL717      0.1805
   3723 CL          6.7510   34.9750   40.3610 Cl    717  CCL717     -0.0870
   3724 CL          7.6350   33.5860   38.0540 Cl    717  CCL717     -0.0870
   3725 CL          9.5470   35.1930   39.6800 Cl    717  CCL717     -0.0870
   3726 HX          7.5680   35.9960   38.5090 H     717  CCL717      0.0806
   3727 C          19.4910   25.5720    8.1320 C.3   718  CCL718      0.1805
   3728 CL         21.0090   24.7060    7.8740 Cl    718  CCL718     -0.0870
   3729 CL         19.4160   26.3750    9.6810 Cl    718  CCL718     -0.0870
   3730 CL         18.1980   24.3680    8.0410 Cl    718  CCL718     -0.0870
   3731 HX         19.2720   26.3370    7.3930 H     718  CCL718      0.0806
   3732 C          34.3970   32.0490    2.5380 C.3   719  CCL719      0.1805
   3733 CL         34.9290   30.4050    2.5050 Cl    719  CCL719     -0.0870
   3734 CL         34.9490   32.9490    3.9580 Cl    719  CCL719     -0.0870
   3735 CL         32.7250   32.2020    2.1570 Cl    719  CCL719     -0.0870
   3736 HX         34.9730   32.5060    1.7390 H     719  CCL719      0.0806
   3737 C          55.2900    6.7120   37.7340 C.3   720  CCL720      0.1805
   3738 CL         55.2010    7.9850   38.9340 Cl    720  CCL720     -0.0870
   3739 CL         55.2540    5.0700   38.5000 Cl    720  CCL720     -0.0870
   3740 CL         56.7500    6.8170   36.7420 Cl    720  CCL720     -0.0870
   3741 HX         54.3820    6.9480   37.1860 H     720  CCL720      0.0806
   3742 C          26.8390    4.9360   17.2400 C.3   721  CCL721      0.1805
   3743 CL         26.2490    6.4330   17.8920 Cl    721  CCL721     -0.0870
   3744 CL         28.3520    5.2460   16.4400 Cl    721  CCL721     -0.0870
   3745 CL         25.6030    4.0330   16.3520 Cl    721  CCL721     -0.0870
   3746 HX         27.1500    4.2770   18.0450 H     721  CCL721      0.0806
   3747 C          37.2420   35.2840   43.3220 C.3   722  CCL722      0.1805
   3748 CL         38.8560   35.8680   43.0860 Cl    722  CCL722     -0.0870
   3749 CL         37.1110   34.5080   44.8830 Cl    722  CCL722     -0.0870
   3750 CL         36.8270   34.1140   42.0340 Cl    722  CCL722     -0.0870
   3751 HX         36.6610   36.2010   43.3510 H     722  CCL722      0.0806
   3752 C          36.8920    8.9420   -1.1700 C.3   723  CCL723      0.1805
   3753 CL         37.6500    8.0550    0.2100 Cl    723  CCL723     -0.0870
   3754 CL         37.5640    8.2910   -2.6560 Cl    723  CCL723     -0.0870
   3755 CL         37.0850   10.6860   -0.9280 Cl    723  CCL723     -0.0870
   3756 HX         35.8320    8.7270   -1.2680 H     723  CCL723      0.0806
   3757 C          43.3610   31.9040   30.0620 C.3   724  CCL724      0.1805
   3758 CL         42.3340   30.5340   29.8050 Cl    724  CCL724     -0.0870
   3759 CL         43.6730   32.8710   28.5600 Cl    724  CCL724     -0.0870
   3760 CL         44.8820   31.3910   30.7510 Cl    724  CCL724     -0.0870
   3761 HX         42.7780   32.4680   30.7840 H     724  CCL724      0.0806
   3762 C          16.8710    2.3830    0.6100 C.3   725  CCL725      0.1805
   3763 CL         16.6700    2.7410   -1.0260 Cl    725  CCL725     -0.0870
   3764 CL         18.6590    2.2430    0.8320 Cl    725  CCL725     -0.0870
   3765 CL         15.8300    1.0320    1.1910 Cl    725  CCL725     -0.0870
   3766 HX         16.5850    3.2720    1.1640 H     725  CCL725      0.0806
   3767 C          26.8700   13.3580   13.6580 C.3   726  CCL726      0.1805
   3768 CL         25.4760   12.9090   12.5580 Cl    726  CCL726     -0.0870
   3769 CL         27.4690   15.0490   13.5600 Cl    726  CCL726     -0.0870
   3770 CL         28.2790   12.3340   13.2950 Cl    726  CCL726     -0.0870
   3771 HX         26.6460   13.2130   14.7110 H     726  CCL726      0.0806
   3772 C          35.2830    4.3320   30.4970 C.3   727  CCL727      0.1805
   3773 CL         36.5830    5.5360   30.6470 Cl    727  CCL727     -0.0870
   3774 CL         34.6520    3.6880   32.1120 Cl    727  CCL727     -0.0870
   3775 CL         35.6600    3.0480   29.4160 Cl    727  CCL727     -0.0870
   3776 HX         34.4860    4.9510   30.0970 H     727  CCL727      0.0806
   3777 C           9.5100    7.0040   12.9030 C.3   728  CCL728      0.1805
   3778 CL          8.8250    6.6950   11.2800 Cl    728  CCL728     -0.0870
   3779 CL         10.1070    8.5870   12.8700 Cl    728  CCL728     -0.0870
   3780 CL         10.8140    5.9200   13.0550 Cl    728  CCL728     -0.0870
   3781 HX          8.7960    6.9490   13.7190 H     728  CCL728      0.0806
   3782 C          25.8980    1.0180   35.6980 C.3   729  CCL729      0.1805
   3783 CL         27.1970   -0.1960   35.4360 Cl    729  CCL729     -0.0870
   3784 CL         25.6910    2.3120   34.4630 Cl    729  CCL729     -0.0870
   3785 CL         26.3840    1.7020   37.2310 Cl    729  CCL729     -0.0870
   3786 HX         24.9070    0.5850   35.7960 H     729  CCL729      0.0806
   3787 C          35.5400   10.3020    9.7220 C.3   730  CCL730      0.1805
   3788 CL         34.7190    9.5100   11.1590 Cl    730  CCL730     -0.0870
   3789 CL         36.8810   11.2570   10.2840 Cl    730  CCL730     -0.0870
   3790 CL         34.4340   11.3500    8.9240 Cl    730  CCL730     -0.0870
   3791 HX         35.7750    9.5590    8.9650 H     730  CCL730      0.0806
   3792 C          18.0710   -6.3640   34.9540 C.3   731  CCL731      0.1805
   3793 CL         18.0650   -6.3790   33.2140 Cl    731  CCL731     -0.0870
   3794 CL         18.2760   -4.7170   35.6690 Cl    731  CCL731     -0.0870
   3795 CL         19.3440   -7.3550   35.5250 Cl    731  CCL731     -0.0870
   3796 HX         17.1330   -6.8030   35.2790 H     731  CCL731      0.0806
   3797 C           6.3050   38.9970   26.6900 C.3   732  CCL732      0.1805
   3798 CL          6.6720   39.2800   25.0340 Cl    732  CCL732     -0.0870
   3799 CL          4.8710   37.9780   26.7970 Cl    732  CCL732     -0.0870
   3800 CL          6.0770   40.4410   27.6140 Cl    732  CCL732     -0.0870
   3801 HX          7.1950   38.4980   27.0610 H     732  CCL732      0.0806
   3802 C          39.7880   21.5830    8.1860 C.3   733  CCL733      0.1805
   3803 CL         39.2320   23.2970    8.0700 Cl    733  CCL733     -0.0870
   3804 CL         40.9690   21.0650    6.9840 Cl    733  CCL733     -0.0870
   3805 CL         38.2970   20.7000    8.1150 Cl    733  CCL733     -0.0870
   3806 HX         40.2530   21.4650    9.1600 H     733  CCL733      0.0806
   3807 C          32.4890   30.0890   39.5560 C.3   734  CCL734      0.1805
   3808 CL         32.4760   31.8400   39.2860 Cl    734  CCL734     -0.0870
   3809 CL         33.1210   29.0780   38.2640 Cl    734  CCL734     -0.0870
   3810 CL         30.9320   29.4320   40.1110 Cl    734  CCL734     -0.0870
   3811 HX         33.2220   29.9430   40.3440 H     734  CCL734      0.0806
   3812 C          41.8590    7.8170   16.0950 C.3   735  CCL735      0.1805
   3813 CL         42.0470    8.8370   17.4520 Cl    735  CCL735     -0.0870
   3814 CL         43.4920    7.3910   15.5170 Cl    735  CCL735     -0.0870
   3815 CL         40.8200    8.3750   14.8180 Cl    735  CCL735     -0.0870
   3816 HX         41.4350    6.8780   16.4380 H     735  CCL735      0.0806
   3817 C           7.8630   35.4450   10.3560 C.3   736  CCL736      0.1805
   3818 CL          7.0240   36.8380   11.0970 Cl    736  CCL736     -0.0870
   3819 CL          9.2750   35.8950    9.3280 Cl    736  CCL736     -0.0870
   3820 CL          6.7110   34.4080    9.4490 Cl    736  CCL736     -0.0870
   3821 HX          8.2400   34.8210   11.1610 H     736  CCL736      0.0806
   3822 C          26.1660    6.5150    1.7530 C.3   737  CCL737      0.1805
   3823 CL         26.4960    4.8100    1.4310 Cl    737  CCL737     -0.0870
   3824 CL         27.4420    7.3630    2.6560 Cl    737  CCL737     -0.0870
   3825 CL         24.8080    6.6720    2.7480 Cl    737  CCL737     -0.0870
   3826 HX         25.9870    7.0710    0.8370 H     737  CCL737      0.0806
   3827 C           4.3890   -7.2100   11.8510 C.3   738  CCL738      0.1805
   3828 CL          3.8400   -8.5780   12.7580 Cl    738  CCL738     -0.0870
   3829 CL          4.3170   -7.5010   10.1100 Cl    738  CCL738     -0.0870
   3830 CL          5.9980   -6.6700   12.4220 Cl    738  CCL738     -0.0870
   3831 HX          3.6900   -6.3810   11.9140 H     738  CCL738      0.0806
   3832 C           8.4700    1.4110   28.5590 C.3   739  CCL739      0.1805
   3833 CL          9.4900    1.3570   30.0320 Cl    739  CCL739     -0.0870
   3834 CL          7.6790    3.0500   28.3040 Cl    739  CCL739     -0.0870
   3835 CL          7.3110    0.1590   28.6030 Cl    739  CCL739     -0.0870
   3836 HX          9.1300    1.1880   27.7260 H     739  CCL739      0.0806
   3837 C          21.0200    6.0470   19.7530 C.3   740  CCL740      0.1805
   3838 CL         20.7600    6.7030   21.3500 Cl    740  CCL740     -0.0870
   3839 CL         22.6520    5.3180   19.6820 Cl    740  CCL740     -0.0870
   3840 CL         20.8860    7.3030   18.4520 Cl    740  CCL740     -0.0870
   3841 HX         20.2110    5.3250   19.6850 H     740  CCL740      0.0806
   3842 C          18.2180   26.6920    4.2910 C.3   741  CCL741      0.1805
   3843 CL         18.3270   25.3600    3.1240 Cl    741  CCL741     -0.0870
   3844 CL         17.4570   28.1320    3.6470 Cl    741  CCL741     -0.0870
   3845 CL         19.7560   27.0810    4.8820 Cl    741  CCL741     -0.0870
   3846 HX         17.5650   26.3610    5.0940 H     741  CCL741      0.0806
   3847 C          22.7870   -3.3890   38.5660 C.3   742  CCL742      0.1805
   3848 CL         24.0440   -4.4380   39.3650 Cl    742  CCL742     -0.0870
   3849 CL         21.8640   -4.2360   37.3030 Cl    742  CCL742     -0.0870
   3850 CL         23.5710   -1.8950   38.0290 Cl    742  CCL742     -0.0870
   3851 HX         22.0630   -3.1020   39.3230 H     742  CCL742      0.0806
   3852 C          33.9970   16.0970   19.2110 C.3   743  CCL743      0.1805
   3853 CL         33.5760   15.4560   17.5810 Cl    743  CCL743     -0.0870
   3854 CL         32.4630   16.4710   20.0990 Cl    743  CCL743     -0.0870
   3855 CL         35.0720   17.4720   19.2630 Cl    743  CCL743     -0.0870
   3856 HX         34.4000   15.2640   19.7790 H     743  CCL743      0.0806
   3857 C          48.1020    3.6400   18.5000 C.3   744  CCL744      0.1805
   3858 CL         48.7160    2.0740   17.8500 Cl    744  CCL744     -0.0870
   3859 CL         48.9840    4.2580   19.8560 Cl    744  CCL744     -0.0870
   3860 CL         46.3610    3.7570   18.9270 Cl    744  CCL744     -0.0870
   3861 HX         48.2410    4.4180   17.7540 H     744  CCL744      0.0806
   3862 C          29.5480    1.0830    9.0590 C.3   745  CCL745      0.1805
   3863 CL         30.0750    0.5850    7.4460 Cl    745  CCL745     -0.0870
   3864 CL         28.5670    2.6240    8.9030 Cl    745  CCL745     -0.0870
   3865 CL         30.7810    1.1470   10.2890 Cl    745  CCL745     -0.0870
   3866 HX         28.8430    0.3460    9.4330 H     745  CCL745      0.0806
   3867 C          38.1110   19.5280   32.5630 C.3   746  CCL746      0.1805
   3868 CL         38.4870   18.0420   31.6260 Cl    746  CCL746     -0.0870
   3869 CL         37.1750   19.1450   34.0840 Cl    746  CCL746     -0.0870
   3870 CL         37.3780   20.8760   31.6310 Cl    746  CCL746     -0.0870
   3871 HX         39.0750   19.9120   32.8830 H     746  CCL746      0.0806
   3872 C          14.6680    6.9130    5.1720 C.3   747  CCL747      0.1805
   3873 CL         15.4120    5.3310    5.1390 Cl    747  CCL747     -0.0870
   3874 CL         14.9790    7.9110    3.7280 Cl    747  CCL747     -0.0870
   3875 CL         15.1280    7.8690    6.5940 Cl    747  CCL747     -0.0870
   3876 HX         13.5920    6.8090    5.2700 H     747  CCL747      0.0806
   3877 C          21.3730   30.7910   44.2370 C.3   748  CCL748      0.1805
   3878 CL         22.2480   30.5290   45.7900 Cl    748  CCL748     -0.0870
   3879 CL         19.5760   30.7790   44.3650 Cl    748  CCL748     -0.0870
   3880 CL         21.9400   29.8240   42.9200 Cl    748  CCL748     -0.0870
   3881 HX         21.5470   31.8290   43.9720 H     748  CCL748      0.0806
   3882 C          21.6440   22.1960    5.5790 C.3   749  CCL749      0.1805
   3883 CL         20.2840   23.0000    4.7710 Cl    749  CCL749     -0.0870
   3884 CL         23.1670   22.9220    5.1050 Cl    749  CCL749     -0.0870
   3885 CL         21.7800   20.4420    5.0780 Cl    749  CCL749     -0.0870
   3886 HX         21.6250   22.2950    6.6600 H     749  CCL749      0.0806
   3887 C          36.5100    0.6870   45.0470 C.3   750  CCL750      0.1805
   3888 CL         36.5340    1.8990   46.2430 Cl    750  CCL750     -0.0870
   3889 CL         38.1380    0.2900   44.4860 Cl    750  CCL750     -0.0870
   3890 CL         35.4320    1.1360   43.6860 Cl    750  CCL750     -0.0870
   3891 HX         36.0180   -0.1850   45.4680 H     750  CCL750      0.0806
   3892 C          12.9260   10.5440   45.4950 C.3   751  CCL751      0.1805
   3893 CL         13.2120    9.0530   46.4230 Cl    751  CCL751     -0.0870
   3894 CL         11.5500   10.4460   44.4060 Cl    751  CCL751     -0.0870
   3895 CL         14.2750   11.0840   44.5100 Cl    751  CCL751     -0.0870
   3896 HX         12.8550   11.4120   46.1450 H     751  CCL751      0.0806
   3897 C          -0.0160   20.1720   24.4270 C.3   752  CCL752      0.1805
   3898 CL          0.4510   19.0900   23.0720 Cl    752  CCL752     -0.0870
   3899 CL          0.2150   21.8490   23.8700 Cl    752  CCL752     -0.0870
   3900 CL          0.9660   19.7540   25.8420 Cl    752  CCL752     -0.0870
   3901 HX         -1.0460   19.8810   24.6120 H     752  CCL752      0.0806
   3902 C           9.4910   26.3540   51.8300 C.3   753  CCL753      0.1805
   3903 CL         10.7660   27.5700   51.4580 Cl    753  CCL753     -0.0870
   3904 CL          9.0450   25.2990   50.5090 Cl    753  CCL753     -0.0870
   3905 CL          8.0800   27.2530   52.3560 Cl    753  CCL753     -0.0870
   3906 HX          9.8100   25.7370   52.6650 H     753  CCL753      0.0806
   3907 C          -4.6740   36.5320   18.3930 C.3   754  CCL754      0.1805
   3908 CL         -4.5590   38.2080   17.9810 Cl    754  CCL754     -0.0870
   3909 CL         -3.7730   35.5420   17.2710 Cl    754  CCL754     -0.0870
   3910 CL         -6.3310   36.0560   18.3110 Cl    754  CCL754     -0.0870
   3911 HX         -4.2820   36.2880   19.3760 H     754  CCL754      0.0806
   3912 C          39.9090   25.8150   11.9400 C.3   755  CCL755      0.1805
   3913 CL         40.1440   27.3150   12.8490 Cl    755  CCL755     -0.0870
   3914 CL         41.2990   24.6280   12.2100 Cl    755  CCL755     -0.0870
   3915 CL         39.5580   25.8740   10.2540 Cl    755  CCL755     -0.0870
   3916 HX         39.0450   25.3650   12.4190 H     755  CCL755      0.0806
   3917 C          29.7710    1.9980   19.1270 C.3   756  CCL756      0.1805
   3918 CL         31.2200    2.7650   19.7590 Cl    756  CCL756     -0.0870
   3919 CL         29.6840    1.8570   17.3630 Cl    756  CCL756     -0.0870
   3920 CL         28.4250    2.9620   19.7310 Cl    756  CCL756     -0.0870
   3921 HX         29.7750    1.0310   19.6220 H     756  CCL756      0.0806
   3922 C          31.9510   50.9610   11.0930 C.3   757  CCL757      0.1805
   3923 CL         31.1770   49.3890   11.3370 Cl    757  CCL757     -0.0870
   3924 CL         31.2500   52.1670   12.2350 Cl    757  CCL757     -0.0870
   3925 CL         31.6950   51.5920    9.4370 Cl    757  CCL757     -0.0870
   3926 HX         33.0260   50.8200   11.1670 H     757  CCL757      0.0806
   3927 C          18.9920   38.4210   29.3840 C.3   758  CCL758      0.1805
   3928 CL         17.6330   37.5140   30.0590 Cl    758  CCL758     -0.0870
   3929 CL         19.0710   38.1630   27.7000 Cl    758  CCL758     -0.0870
   3930 CL         20.5340   38.0030   30.1040 Cl    758  CCL758     -0.0870
   3931 HX         18.7600   39.4310   29.7070 H     758  CCL758      0.0806
   3932 C          27.3220   -1.3730   39.1100 C.3   759  CCL759      0.1805
   3933 CL         28.8580   -0.6040   38.5580 Cl    759  CCL759     -0.0870
   3934 CL         26.8370   -0.7690   40.7390 Cl    759  CCL759     -0.0870
   3935 CL         27.2960   -3.1050   38.9010 Cl    759  CCL759     -0.0870
   3936 HX         26.5140   -0.9200   38.5440 H     759  CCL759      0.0806
   3937 C           4.6320   21.8270   32.1590 C.3   760  CCL760      0.1805
   3938 CL          6.1970   21.4200   32.8340 Cl    760  CCL760     -0.0870
   3939 CL          3.6670   20.5080   31.5640 Cl    760  CCL760     -0.0870
   3940 CL          4.8300   23.1140   31.0330 Cl    760  CCL760     -0.0870
   3941 HX          4.1790   22.2200   33.0650 H     760  CCL760      0.0806
   3942 C          49.0120   10.6830    7.9130 C.3   761  CCL761      0.1805
   3943 CL         49.0890   11.6320    9.3800 Cl    761  CCL761     -0.0870
   3944 CL         47.9430    9.2510    8.0470 Cl    761  CCL761     -0.0870
   3945 CL         50.5720   10.0400    7.4540 Cl    761  CCL761     -0.0870
   3946 HX         48.7010   11.2880    7.0660 H     761  CCL761      0.0806
   3947 C          14.5770    4.8600   44.8400 C.3   762  CCL762      0.1805
   3948 CL         15.4130    3.9040   43.7070 Cl    762  CCL762     -0.0870
   3949 CL         13.8320    3.8350   46.0640 Cl    762  CCL762     -0.0870
   3950 CL         13.4150    6.0010   44.0690 Cl    762  CCL762     -0.0870
   3951 HX         15.3950    5.3840   45.3230 H     762  CCL762      0.0806
   3952 C          22.4190    7.8800   45.8140 C.3   763  CCL763      0.1805
   3953 CL         21.8260    9.4730   45.2080 Cl    763  CCL763     -0.0870
   3954 CL         21.3830    7.2320   47.1270 Cl    763  CCL763     -0.0870
   3955 CL         24.0820    7.7540   46.2760 Cl    763  CCL763     -0.0870
   3956 HX         22.3390    7.1350   45.0270 H     763  CCL763      0.0806
   3957 C          44.2610   30.3830   26.0280 C.3   764  CCL764      0.1805
   3958 CL         45.8380   30.8900   25.5220 Cl    764  CCL764     -0.0870
   3959 CL         44.3110   28.9850   27.0500 Cl    764  CCL764     -0.0870
   3960 CL         43.2920   29.9560   24.6080 Cl    764  CCL764     -0.0870
   3961 HX         43.7280   31.1300   26.6090 H     764  CCL764      0.0806
   3962 C          23.1660   -1.9110   -0.3950 C.3   765  CCL765      0.1805
   3963 CL         24.9450   -2.1230   -0.1890 Cl    765  CCL765     -0.0870
   3964 CL         22.5400   -0.6360    0.6850 Cl    765  CCL765     -0.0870
   3965 CL         22.2930   -3.4270   -0.3560 Cl    765  CCL765     -0.0870
   3966 HX         23.0280   -1.5630   -1.4140 H     765  CCL765      0.0806
   3967 C          34.3710   17.1750   -0.8940 C.3   766  CCL766      0.1805
   3968 CL         35.5250   17.8310    0.2460 Cl    766  CCL766     -0.0870
   3969 CL         34.6740   15.4150   -1.0200 Cl    766  CCL766     -0.0870
   3970 CL         34.3200   17.9120   -2.4820 Cl    766  CCL766     -0.0870
   3971 HX         33.3350   17.2840   -0.5860 H     766  CCL766      0.0806
   3972 C          17.7930    8.4870   44.9420 C.3   767  CCL767      0.1805
   3973 CL         16.7550    9.3990   46.0350 Cl    767  CCL767     -0.0870
   3974 CL         17.2020    8.4650   43.2740 Cl    767  CCL767     -0.0870
   3975 CL         18.0810    6.8430   45.6010 Cl    767  CCL767     -0.0870
   3976 HX         18.7590    8.9770   44.8540 H     767  CCL767      0.0806
   3977 C          33.8410    8.3740   43.6070 C.3   768  CCL768      0.1805
   3978 CL         32.7870    9.6390   44.2310 Cl    768  CCL768     -0.0870
   3979 CL         35.4780    8.3440   44.4380 Cl    768  CCL768     -0.0870
   3980 CL         34.0950    8.7330   41.8770 Cl    768  CCL768     -0.0870
   3981 HX         33.2940    7.4640   43.8320 H     768  CCL768      0.0806
   3982 C           0.2850   29.1610   45.4910 C.3   769  CCL769      0.1805
   3983 CL          1.0990   28.1790   44.2060 Cl    769  CCL769     -0.0870
   3984 CL         -0.0260   30.7850   44.9040 Cl    769  CCL769     -0.0870
   3985 CL          0.8730   29.1720   47.1370 Cl    769  CCL769     -0.0870
   3986 HX         -0.7230   28.7560   45.4940 H     769  CCL769      0.0806
   3987 C          18.8760   31.5540    1.1180 C.3   770  CCL770      0.1805
   3988 CL         18.0660   32.1530    2.6260 Cl    770  CCL770     -0.0870
   3989 CL         18.9100   29.7410    1.1360 Cl    770  CCL770     -0.0870
   3990 CL         20.5300   32.2810    1.0150 Cl    770  CCL770     -0.0870
   3991 HX         18.2710   31.8880    0.2800 H     770  CCL770      0.0806
   3992 C          -1.0430    7.9080   20.6580 C.3   771  CCL771      0.1805
   3993 CL         -1.9020    9.0480   19.5630 Cl    771  CCL771     -0.0870
   3994 CL         -1.0940    8.4120   22.3210 Cl    771  CCL771     -0.0870
   3995 CL          0.6480    7.8570   20.1800 Cl    771  CCL771     -0.0870
   3996 HX         -1.4400    6.8990   20.5930 H     771  CCL771      0.0806
   3997 C          17.3980   -4.0360    6.8130 C.3   772  CCL772      0.1805
   3998 CL         17.9260   -3.8200    8.4880 Cl    772  CCL772     -0.0870
   3999 CL         18.6030   -4.5840    5.6870 Cl    772  CCL772     -0.0870
   4000 CL         16.6000   -2.5090    6.3130 Cl    772  CCL772     -0.0870
   4001 HX         16.6280   -4.7990    6.8760 H     772  CCL772      0.0806
   4002 C          -5.4740   28.0600   39.3600 C.3   773  CCL773      0.1805
   4003 CL         -7.1960   28.0560   39.0670 Cl    773  CCL773     -0.0870
   4004 CL         -4.8930   27.3340   40.8690 Cl    773  CCL773     -0.0870
   4005 CL         -4.7000   29.6150   39.0350 Cl    773  CCL773     -0.0870
   4006 HX         -5.1160   27.3730   38.5990 H     773  CCL773      0.0806
   4007 C          23.6070   40.8010   32.9250 C.3   774  CCL774      0.1805
   4008 CL         23.1620   40.6020   31.2180 Cl    774  CCL774     -0.0870
   4009 CL         22.4460   41.6140   34.0820 Cl    774  CCL774     -0.0870
   4010 CL         25.0570   41.7970   33.1120 Cl    774  CCL774     -0.0870
   4011 HX         23.7990   39.8310   33.3740 H     774  CCL774      0.0806
   4012 C          20.5400    8.0140   38.4370 C.3   775  CCL775      0.1805
   4013 CL         21.7660    7.1160   39.3640 Cl    775  CCL775     -0.0870
   4014 CL         21.3270    9.4920   37.7420 Cl    775  CCL775     -0.0870
   4015 CL         19.2910    8.4280   39.5800 Cl    775  CCL775     -0.0870
   4016 HX         20.1390    7.3510   37.6760 H     775  CCL775      0.0806
   4017 C           5.0850    3.1120   31.2470 C.3   776  CCL776      0.1805
   4018 CL          5.1400    4.7880   30.8730 Cl    776  CCL776     -0.0870
   4019 CL          3.4990    2.3110   31.3320 Cl    776  CCL776     -0.0870
   4020 CL          5.8920    2.6780   32.7750 Cl    776  CCL776     -0.0870
   4021 HX          5.5630    2.5990   30.4170 H     776  CCL776      0.0806
   4022 C          14.3800   12.1520   39.3260 C.3   777  CCL777      0.1805
   4023 CL         15.6190   10.9550   38.7970 Cl    777  CCL777     -0.0870
   4024 CL         13.4910   12.7860   37.9400 Cl    777  CCL777     -0.0870
   4025 CL         14.8960   13.4730   40.4020 Cl    777  CCL777     -0.0870
   4026 HX         13.5990   11.6820   39.9150 H     777  CCL777      0.0806
   4027 C           9.7290   -6.7340    2.5810 C.3   778  CCL778      0.1805
   4028 CL         10.8150   -5.8610    3.7070 Cl    778  CCL778     -0.0870
   4029 CL         10.1450   -6.3750    0.9530 Cl    778  CCL778     -0.0870
   4030 CL          8.0490   -6.2880    2.9180 Cl    778  CCL778     -0.0870
   4031 HX          9.9630   -7.7880    2.6950 H     778  CCL778      0.0806
   4032 C           6.7480   33.9460   26.6280 C.3   779  CCL779      0.1805
   4033 CL          7.0380   33.6620   28.3590 Cl    779  CCL779     -0.0870
   4034 CL          7.8240   35.2620   25.9900 Cl    779  CCL779     -0.0870
   4035 CL          5.1060   34.3410   26.3410 Cl    779  CCL779     -0.0870
   4036 HX          6.8580   33.0620   26.0080 H     779  CCL779      0.0806
   4037 C          22.1990   35.0150   43.5500 C.3   780  CCL780      0.1805
   4038 CL         21.7780   36.6210   44.1270 Cl    780  CCL780     -0.0870
   4039 CL         20.8640   34.2560   42.8300 Cl    780  CCL780     -0.0870
   4040 CL         22.8960   34.0100   44.7500 Cl    780  CCL780     -0.0870
   4041 HX         22.9480   35.0920   42.7680 H     780  CCL780      0.0806
   4042 C           5.2820   -1.2310   33.2440 C.3   781  CCL781      0.1805
   4043 CL          5.3610   -1.4160   31.5130 Cl    781  CCL781     -0.0870
   4044 CL          5.2490   -2.7900   34.0820 Cl    781  CCL781     -0.0870
   4045 CL          3.8940   -0.2180   33.8060 Cl    781  CCL781     -0.0870
   4046 HX          6.2260   -0.7680   33.5150 H     781  CCL781      0.0806
   4047 C          38.1320   -0.7610   40.1090 C.3   782  CCL782      0.1805
   4048 CL         39.6970   -0.0220   39.9460 Cl    782  CCL782     -0.0870
   4049 CL         37.9920   -1.7870   41.6100 Cl    782  CCL782     -0.0870
   4050 CL         37.6840   -1.6550   38.6740 Cl    782  CCL782     -0.0870
   4051 HX         37.3980    0.0260   40.2500 H     782  CCL782      0.0806
   4052 C          34.6820    5.4480   42.0870 C.3   783  CCL783      0.1805
   4053 CL         33.8820    4.8070   43.4720 Cl    783  CCL783     -0.0870
   4054 CL         33.6190    5.4280   40.7110 Cl    783  CCL783     -0.0870
   4055 CL         36.0590    4.4870   41.6940 Cl    783  CCL783     -0.0870
   4056 HX         34.9640    6.4460   42.4110 H     783  CCL783      0.0806
   4057 C          27.1120    5.4440   23.5800 C.3   784  CCL784      0.1805
   4058 CL         28.3580    5.7210   24.7560 Cl    784  CCL784     -0.0870
   4059 CL         27.1880    3.7390   23.0150 Cl    784  CCL784     -0.0870
   4060 CL         27.2460    6.6540   22.3050 Cl    784  CCL784     -0.0870
   4061 HX         26.1880    5.5950   24.1300 H     784  CCL784      0.0806
   4062 C           1.7780   34.2260   44.6890 C.3   785  CCL785      0.1805
   4063 CL          2.0420   34.3930   42.9990 Cl    785  CCL785     -0.0870
   4064 CL          0.8420   35.6010   45.4170 Cl    785  CCL785     -0.0870
   4065 CL          3.2830   33.9670   45.5480 Cl    785  CCL785     -0.0870
   4066 HX          1.1940   33.3520   44.9640 H     785  CCL785      0.0806
   4067 C          23.6610   33.4270   12.4400 C.3   786  CCL786      0.1805
   4068 CL         21.9230   33.4610   12.5090 Cl    786  CCL786     -0.0870
   4069 CL         24.3920   33.0030   10.8790 Cl    786  CCL786     -0.0870
   4070 CL         24.1660   32.1950   13.6150 Cl    786  CCL786     -0.0870
   4071 HX         24.0680   34.3890   12.7380 H     786  CCL786      0.0806
   4072 C          49.1760    7.8840   30.6970 C.3   787  CCL787      0.1805
   4073 CL         47.4150    8.1260   30.6540 Cl    787  CCL787     -0.0870
   4074 CL         49.6010    6.2450   30.2530 Cl    787  CCL787     -0.0870
   4075 CL         49.7910    8.2990   32.2600 Cl    787  CCL787     -0.0870
   4076 HX         49.6540    8.6300   30.0680 H     787  CCL787      0.0806
   4077 C           9.8460    8.6120   29.2430 C.3   788  CCL788      0.1805
   4078 CL         10.8900    7.5050   30.1310 Cl    788  CCL788     -0.0870
   4079 CL          8.1200    8.6230   29.7400 Cl    788  CCL788     -0.0870
   4080 CL          9.9510    8.5230   27.5240 Cl    788  CCL788     -0.0870
   4081 HX         10.2130    9.5990   29.5110 H     788  CCL788      0.0806
   4082 C          23.1210   38.5370    2.5000 C.3   789  CCL789      0.1805
   4083 CL         23.4730   38.0530    4.0850 Cl    789  CCL789     -0.0870
   4084 CL         23.9490   40.0710    2.0180 Cl    789  CCL789     -0.0870
   4085 CL         21.3860   38.6340    2.3260 Cl    789  CCL789     -0.0870
   4086 HX         23.4960   37.7740    1.8240 H     789  CCL789      0.0806
   4087 C          31.7840   47.7690   19.4690 C.3   790  CCL790      0.1805
   4088 CL         32.8040   47.3150   18.1180 Cl    790  CCL790     -0.0870
   4089 CL         31.6550   49.4830   19.8400 Cl    790  CCL790     -0.0870
   4090 CL         32.1370   46.8510   20.8680 Cl    790  CCL790     -0.0870
   4091 HX         30.7670   47.4600   19.2450 H     790  CCL790      0.0806
   4092 C          27.3840   12.1700   48.7360 C.3   791  CCL791      0.1805
   4093 CL         28.0130   10.5410   48.5270 Cl    791  CCL791     -0.0870
   4094 CL         26.4700   12.6230   47.2810 Cl    791  CCL791     -0.0870
   4095 CL         28.5290   13.2880   49.3390 Cl    791  CCL791     -0.0870
   4096 HX         26.8040   12.2210   49.6520 H     791  CCL791      0.0806
   4097 C          21.9500   19.2770   35.0470 C.3   792  CCL792      0.1805
   4098 CL         23.5330   18.3890   35.0100 Cl    792  CCL792     -0.0870
   4099 CL         22.1920   20.9610   34.5600 Cl    792  CCL792     -0.0870
   4100 CL         21.2560   19.0230   36.6200 Cl    792  CCL792     -0.0870
   4101 HX         21.3640   18.7820   34.2790 H     792  CCL792      0.0806
   4102 C          19.6280   25.1140   26.8800 C.3   793  CCL793      0.1805
   4103 CL         19.5740   26.8190   26.6520 Cl    793  CCL793     -0.0870
   4104 CL         18.0900   24.3520   27.3890 Cl    793  CCL793     -0.0870
   4105 CL         20.9170   24.6620   27.9390 Cl    793  CCL793     -0.0870
   4106 HX         19.7560   24.7050   25.8820 H     793  CCL793      0.0806
   4107 C          25.5820   31.2320   29.5500 C.3   794  CCL794      0.1805
   4108 CL         27.1210   31.2090   28.7530 Cl    794  CCL794     -0.0870
   4109 CL         25.2060   29.6360   30.2570 Cl    794  CCL794     -0.0870
   4110 CL         24.2460   31.7100   28.5470 Cl    794  CCL794     -0.0870
   4111 HX         25.6900   32.0020   30.3080 H     794  CCL794      0.0806
   4112 C           5.8010   30.0880   40.2140 C.3   795  CCL795      0.1805
   4113 CL          5.0830   31.5990   39.8220 Cl    795  CCL795     -0.0870
   4114 CL          7.3710   29.9970   39.4810 Cl    795  CCL795     -0.0870
   4115 CL          4.6950   28.8090   39.8040 Cl    795  CCL795     -0.0870
   4116 HX          5.8660   30.1210   41.2970 H     795  CCL795      0.0806
   4117 C          23.7430   40.8010    8.9600 C.3   796  CCL796      0.1805
   4118 CL         24.9390   40.0450    7.8620 Cl    796  CCL796     -0.0870
   4119 CL         23.6910   42.5820    9.0320 Cl    796  CCL796     -0.0870
   4120 CL         23.9130   39.9770   10.5200 Cl    796  CCL796     -0.0870
   4121 HX         22.7650   40.5800    8.5420 H     796  CCL796      0.0806
   4122 C          25.0230   21.9270   42.0530 C.3   797  CCL797      0.1805
   4123 CL         25.6450   22.5370   40.5270 Cl    797  CCL797     -0.0870
   4124 CL         23.4230   21.2600   41.8060 Cl    797  CCL797     -0.0870
   4125 CL         25.1340   23.1010   43.3900 Cl    797  CCL797     -0.0870
   4126 HX         25.6720   21.1260   42.3950 H     797  CCL797      0.0806
   4127 C           1.4340   28.6230    6.7140 C.3   798  CCL798      0.1805
   4128 CL          1.7530   27.9870    5.1230 Cl    798  CCL798     -0.0870
   4129 CL          1.5000   27.3150    7.8820 Cl    798  CCL798     -0.0870
   4130 CL         -0.1620   29.3490    6.6160 Cl    798  CCL798     -0.0870
   4131 HX          2.1890   29.3860    6.8800 H     798  CCL798      0.0806
   4132 C          17.3370   22.2240   35.3500 C.3   799  CCL799      0.1805
   4133 CL         18.3890   23.5520   34.8150 Cl    799  CCL799     -0.0870
   4134 CL         18.1910   20.8760   35.9900 Cl    799  CCL799     -0.0870
   4135 CL         16.4700   21.6330   33.8990 Cl    799  CCL799     -0.0870
   4136 HX         16.6380   22.6400   36.0700 H     799  CCL799      0.0806
   4137 C          28.4290    1.6780   44.1290 C.3   800  CCL800      0.1805
   4138 CL         28.7170    2.5970   42.6510 Cl    800  CCL800     -0.0870
   4139 CL         26.8450    2.0330   44.9230 Cl    800  CCL800     -0.0870
   4140 CL         29.7900    1.9220   45.3540 Cl    800  CCL800     -0.0870
   4141 HX         28.2930    0.6070   44.0120 H     800  CCL800      0.0806
   4142 C          30.7370    3.7020   38.2210 C.3   801  CCL801      0.1805
   4143 CL         30.9540    3.1620   36.5540 Cl    801  CCL801     -0.0870
   4144 CL         30.5200    2.4540   39.4270 Cl    801  CCL801     -0.0870
   4145 CL         29.2590    4.7980   38.3040 Cl    801  CCL801     -0.0870
   4146 HX         31.6110    4.3210   38.4040 H     801  CCL801      0.0806
   4147 C           8.6450   20.1090   13.9520 C.3   802  CCL802      0.1805
   4148 CL          8.7450   18.4500   14.5180 Cl    802  CCL802     -0.0870
   4149 CL          9.7880   21.0870   14.9810 Cl    802  CCL802     -0.0870
   4150 CL          7.0120   20.7160   14.0610 Cl    802  CCL802     -0.0870
   4151 HX          8.9700   20.1950   12.9200 H     802  CCL802      0.0806
   4152 C           6.0730    6.7920    4.8050 C.3   803  CCL803      0.1805
   4153 CL          4.9160    5.4480    5.0750 Cl    803  CCL803     -0.0870
   4154 CL          5.4490    7.9260    3.5860 Cl    803  CCL803     -0.0870
   4155 CL          7.6990    6.3290    4.2110 Cl    803  CCL803     -0.0870
   4156 HX          6.1740    7.3220    5.7470 H     803  CCL803      0.0806
   4157 C           9.1180   32.5050    6.3890 C.3   804  CCL804      0.1805
   4158 CL          9.0960   34.2510    6.1140 Cl    804  CCL804     -0.0870
   4159 CL          7.7710   32.0150    7.4340 Cl    804  CCL804     -0.0870
   4160 CL         10.6220   32.0330    7.1200 Cl    804  CCL804     -0.0870
   4161 HX          9.0340   31.9840    5.4390 H     804  CCL804      0.0806
   4162 C           6.8420    5.2290   21.6850 C.3   805  CCL805      0.1805
   4163 CL          6.7920    5.5450   23.4080 Cl    805  CCL805     -0.0870
   4164 CL          5.5560    4.1520   21.1840 Cl    805  CCL805     -0.0870
   4165 CL          8.4320    4.6310   21.2460 Cl    805  CCL805     -0.0870
   4166 HX          6.6450    6.1400   21.1290 H     805  CCL805      0.0806
   4167 C          11.4030   -8.7230   34.2770 C.3   806  CCL806      0.1805
   4168 CL         11.9880   -9.8350   33.0900 Cl    806  CCL806     -0.0870
   4169 CL         11.7400   -7.0970   33.6700 Cl    806  CCL806     -0.0870
   4170 CL         12.2260   -8.9900   35.8790 Cl    806  CCL806     -0.0870
   4171 HX         10.3330   -8.9080   34.3140 H     806  CCL806      0.0806
   4172 C          24.2560   39.6100   45.2260 C.3   807  CCL807      0.1805
   4173 CL         22.9110   40.6480   45.6690 Cl    807  CCL807     -0.0870
   4174 CL         24.9230   38.9020   46.6780 Cl    807  CCL807     -0.0870
   4175 CL         25.4840   40.6180   44.4130 Cl    807  CCL807     -0.0870
   4176 HX         23.8950   38.7720   44.6370 H     807  CCL807      0.0806
   4177 C           0.2940   23.6110    7.1430 C.3   808  CCL808      0.1805
   4178 CL          1.9660   23.6060    6.6640 Cl    808  CCL808     -0.0870
   4179 CL         -0.5990   24.9600    6.4230 Cl    808  CCL808     -0.0870
   4180 CL          0.3060   23.8520    8.8960 Cl    808  CCL808     -0.0870
   4181 HX         -0.0540   22.6340    6.8210 H     808  CCL808      0.0806
   4182 C          27.5250   10.5990   -0.5290 C.3   809  CCL809      0.1805
   4183 CL         26.4710   11.8820   -1.0000 Cl    809  CCL809     -0.0870
   4184 CL         29.0470   10.6880   -1.3290 Cl    809  CCL809     -0.0870
   4185 CL         26.7540    9.0300   -0.8300 Cl    809  CCL809     -0.0870
   4186 HX         27.6310   10.7810    0.5370 H     809  CCL809      0.0806
   4187 C           6.9680   31.2630   30.9210 C.3   810  CCL810      0.1805
   4188 CL          5.2880   30.7950   31.2610 Cl    810  CCL810     -0.0870
   4189 CL          7.8120   30.1000   29.8680 Cl    810  CCL810     -0.0870
   4190 CL          7.9070   31.4090   32.5520 Cl    810  CCL810     -0.0870
   4191 HX          6.9120   32.2510   30.4750 H     810  CCL810      0.0806
   4192 C          15.9380   33.5560   31.3290 C.3   811  CCL811      0.1805
   4193 CL         17.5870   33.1990   31.6470 Cl    811  CCL811     -0.0870
   4194 CL         15.7260   33.7050   29.6050 Cl    811  CCL811     -0.0870
   4195 CL         15.6580   35.1000   31.9820 Cl    811  CCL811     -0.0870
   4196 HX         15.2660   32.7690   31.6560 H     811  CCL811      0.0806
   4197 C          38.5960   21.8310   38.9290 C.3   812  CCL812      0.1805
   4198 CL         38.3920   23.4230   38.1610 Cl    812  CCL812     -0.0870
   4199 CL         37.2430   20.7090   38.5120 Cl    812  CCL812     -0.0870
   4200 CL         38.6640   22.0160   40.6990 Cl    812  CCL812     -0.0870
   4201 HX         39.4660   21.3220   38.5260 H     812  CCL812      0.0806
   4202 C          33.7140   38.4300   12.8210 C.3   813  CCL813      0.1805
   4203 CL         33.3470   38.1720   11.0920 Cl    813  CCL813     -0.0870
   4204 CL         34.9300   37.1890   13.3340 Cl    813  CCL813     -0.0870
   4205 CL         32.2230   38.2140   13.6910 Cl    813  CCL813     -0.0870
   4206 HX         34.0900   39.4380   12.9680 H     813  CCL813      0.0806
   4207 C          13.1420   20.4730   37.7080 C.3   814  CCL814      0.1805
   4208 CL         12.1540   21.6210   38.6270 Cl    814  CCL814     -0.0870
   4209 CL         12.7260   18.8140   38.1020 Cl    814  CCL814     -0.0870
   4210 CL         14.9190   20.7100   37.8060 Cl    814  CCL814     -0.0870
   4211 HX         12.8300   20.5100   36.6690 H     814  CCL814      0.0806
   4212 C          42.6640   22.4220   19.9690 C.3   815  CCL815      0.1805
   4213 CL         41.4880   21.0910   20.3840 Cl    815  CCL815     -0.0870
   4214 CL         42.4780   23.0060   18.2970 Cl    815  CCL815     -0.0870
   4215 CL         44.2950   21.9050   20.3410 Cl    815  CCL815     -0.0870
   4216 HX         42.5050   23.3310   20.5420 H     815  CCL815      0.0806
   4217 C          12.3520   13.2290    1.6980 C.3   816  CCL816      0.1805
   4218 CL         12.6420   14.0990    3.2100 Cl    816  CCL816     -0.0870
   4219 CL         13.7780   12.4400    1.1710 Cl    816  CCL816     -0.0870
   4220 CL         11.7500   14.3030    0.4110 Cl    816  CCL816     -0.0870
   4221 HX         11.6290   12.4400    1.8820 H     816  CCL816      0.0806
   4222 C          53.0070    5.2260   27.7740 C.3   817  CCL817      0.1805
   4223 CL         53.0240    6.4720   28.9610 Cl    817  CCL817     -0.0870
   4224 CL         51.3540    4.6710   27.2610 Cl    817  CCL817     -0.0870
   4225 CL         53.9690    3.8180   28.2620 Cl    817  CCL817     -0.0870
   4226 HX         53.3730    5.6490   26.8440 H     817  CCL817      0.0806
   4227 C          22.2200   46.5880    8.9080 C.3   818  CCL818      0.1805
   4228 CL         20.6960   46.5920    9.7340 Cl    818  CCL818     -0.0870
   4229 CL         22.3370   45.5220    7.5690 Cl    818  CCL818     -0.0870
   4230 CL         23.5980   46.3800    9.9920 Cl    818  CCL818     -0.0870
   4231 HX         22.3560   47.5510    8.4250 H     818  CCL818      0.0806
   4232 C          14.5450   23.6260    5.8240 C.3   819  CCL819      0.1805
   4233 CL         14.3260   22.0170    6.3920 Cl    819  CCL819     -0.0870
   4234 CL         14.6990   24.7890    7.1600 Cl    819  CCL819     -0.0870
   4235 CL         13.2250   24.0880    4.6990 Cl    819  CCL819     -0.0870
   4236 HX         15.4950   23.7460    5.3130 H     819  CCL819      0.0806
   4237 C          21.6250   -3.5820    8.1320 C.3   820  CCL820      0.1805
   4238 CL         22.4160   -2.0400    7.7200 Cl    820  CCL820     -0.0870
   4239 CL         21.6970   -3.9410    9.8940 Cl    820  CCL820     -0.0870
   4240 CL         22.3930   -4.9400    7.2710 Cl    820  CCL820     -0.0870
   4241 HX         20.6130   -3.6060    7.7380 H     820  CCL820      0.0806
   4242 C          37.1630   31.4150   16.9330 C.3   821  CCL821      0.1805
   4243 CL         36.7040   31.1850   18.6090 Cl    821  CCL821     -0.0870
   4244 CL         36.6970   30.0690   15.9260 Cl    821  CCL821     -0.0870
   4245 CL         38.8700   31.7390   16.7630 Cl    821  CCL821     -0.0870
   4246 HX         36.6410   32.2610   16.4950 H     821  CCL821      0.0806
   4247 C           8.4790   -6.7920    8.0520 C.3   822  CCL822      0.1805
   4248 CL          8.7900   -5.3370    7.0300 Cl    822  CCL822     -0.0870
   4249 CL          9.5270   -7.0940    9.3980 Cl    822  CCL822     -0.0870
   4250 CL          7.9940   -8.2270    7.1920 Cl    822  CCL822     -0.0870
   4251 HX          7.5750   -6.5510    8.6040 H     822  CCL822      0.0806
   4252 C          22.6830   35.2860    7.2690 C.3   823  CCL823      0.1805
   4253 CL         23.4550   33.7360    6.9090 Cl    823  CCL823     -0.0870
   4254 CL         21.8440   35.2990    8.8180 Cl    823  CCL823     -0.0870
   4255 CL         21.5370   35.7340    6.0170 Cl    823  CCL823     -0.0870
   4256 HX         23.4490   36.0530    7.2070 H     823  CCL823      0.0806
   4257 C          11.4940   37.2640   11.6580 C.3   824  CCL824      0.1805
   4258 CL         10.0410   38.0840   12.3160 Cl    824  CCL824     -0.0870
   4259 CL         11.6850   35.5990   12.0130 Cl    824  CCL824     -0.0870
   4260 CL         13.0300   38.2170   11.9570 Cl    824  CCL824     -0.0870
   4261 HX         11.4690   37.2860   10.5720 H     824  CCL824      0.0806
   4262 C          -3.5050   17.3680   23.6590 C.3   825  CCL825      0.1805
   4263 CL         -2.4650   17.2140   25.1370 Cl    825  CCL825     -0.0870
   4264 CL         -3.3750   19.0910   23.0980 Cl    825  CCL825     -0.0870
   4265 CL         -5.2150   16.8910   23.9810 Cl    825  CCL825     -0.0870
   4266 HX         -3.0900   16.7170   22.8950 H     825  CCL825      0.0806
   4267 C          23.0440   -6.8750   46.9650 C.3   826  CCL826      0.1805
   4268 CL         23.0910   -5.3420   46.0730 Cl    826  CCL826     -0.0870
   4269 CL         21.3720   -7.1540   47.4110 Cl    826  CCL826     -0.0870
   4270 CL         24.0880   -6.8000   48.4720 Cl    826  CCL826     -0.0870
   4271 HX         23.4760   -7.7210   46.4400 H     826  CCL826      0.0806
   4272 C          20.8870    3.3460   29.5110 C.3   827  CCL827      0.1805
   4273 CL         19.6040    4.0750   30.5910 Cl    827  CCL827     -0.0870
   4274 CL         22.4460    3.6440   30.2300 Cl    827  CCL827     -0.0870
   4275 CL         20.7200    4.0080   27.9300 Cl    827  CCL827     -0.0870
   4276 HX         20.6700    2.2820   29.4780 H     827  CCL827      0.0806
   4277 C          41.6190    7.3340   -3.0330 C.3   828  CCL828      0.1805
   4278 CL         42.5650    8.6590   -2.3630 Cl    828  CCL828     -0.0870
   4279 CL         40.4620    7.7200   -4.3030 Cl    828  CCL828     -0.0870
   4280 CL         40.6370    6.4700   -1.7120 Cl    828  CCL828     -0.0870
   4281 HX         42.2750    6.6120   -3.5100 H     828  CCL828      0.0806
   4282 C           0.8920   24.9950   53.6830 C.3   829  CCL829      0.1805
   4283 CL          1.6190   25.2970   52.0630 Cl    829  CCL829     -0.0870
   4284 CL          1.3670   23.3270   54.1610 Cl    829  CCL829     -0.0870
   4285 CL         -0.8780   24.9830   53.7810 Cl    829  CCL829     -0.0870
   4286 HX          1.2780   25.6330   54.4720 H     829  CCL829      0.0806
   4287 C          42.4410    9.6590   25.9260 C.3   830  CCL830      0.1805
   4288 CL         41.7660    9.3080   24.3230 Cl    830  CCL830     -0.0870
   4289 CL         43.7480   10.7030   25.6620 Cl    830  CCL830     -0.0870
   4290 CL         42.9780    8.1340   26.7040 Cl    830  CCL830     -0.0870
   4291 HX         41.6970   10.1550   26.5420 H     830  CCL830      0.0806
   4292 C          30.3820   28.3710   12.7360 C.3   831  CCL831      0.1805
   4293 CL         31.7370   27.3140   12.6770 Cl    831  CCL831     -0.0870
   4294 CL         28.9570   27.4220   12.5740 Cl    831  CCL831     -0.0870
   4295 CL         30.5160   29.6510   11.4640 Cl    831  CCL831     -0.0870
   4296 HX         30.4850   28.8950   13.6820 H     831  CCL831      0.0806
   4297 C          29.0480   11.2620   23.4170 C.3   832  CCL832      0.1805
   4298 CL         28.0410   10.2460   24.4130 Cl    832  CCL832     -0.0870
   4299 CL         30.2700   10.3190   22.7080 Cl    832  CCL832     -0.0870
   4300 CL         29.6460   12.5740   24.3650 Cl    832  CCL832     -0.0870
   4301 HX         28.4750   11.8010   22.6690 H     832  CCL832      0.0806
   4302 C          36.0450   17.2860   23.2660 C.3   833  CCL833      0.1805
   4303 CL         36.6750   16.3620   24.6580 Cl    833  CCL833     -0.0870
   4304 CL         37.3520   17.7940   22.2170 Cl    833  CCL833     -0.0870
   4305 CL         35.3040   18.6780   23.9430 Cl    833  CCL833     -0.0870
   4306 HX         35.3890   16.6170   22.7160 H     833  CCL833      0.0806
   4307 C          42.1760   25.4360    7.9080 C.3   834  CCL834      0.1805
   4308 CL         42.7460   24.1000    8.8730 Cl    834  CCL834     -0.0870
   4309 CL         41.7590   24.9540    6.3180 Cl    834  CCL834     -0.0870
   4310 CL         43.3370   26.7390    7.7610 Cl    834  CCL834     -0.0870
   4311 HX         41.2360   25.7560    8.3480 H     834  CCL834      0.0806
   4312 C          22.3640   19.2410   10.2310 C.3   835  CCL835      0.1805
   4313 CL         21.8310   20.4450   11.3460 Cl    835  CCL835     -0.0870
   4314 CL         24.0770   18.7380   10.3910 Cl    835  CCL835     -0.0870
   4315 CL         22.1050   19.9460    8.6340 Cl    835  CCL835     -0.0870
   4316 HX         21.7080   18.3810   10.3290 H     835  CCL835      0.0806
   4317 C          11.8810  -13.3570   40.1330 C.3   836  CCL836      0.1805
   4318 CL         11.2770  -11.8350   39.3860 Cl    836  CCL836     -0.0870
   4319 CL         10.5750  -14.3880   40.6450 Cl    836  CCL836     -0.0870
   4320 CL         13.1070  -13.0600   41.4400 Cl    836  CCL836     -0.0870
   4321 HX         12.4200  -13.8470   39.3280 H     836  CCL836      0.0806
   4322 C          37.1540    6.9790   34.6380 C.3   837  CCL837      0.1805
   4323 CL         36.9760    8.2830   35.7900 Cl    837  CCL837     -0.0870
   4324 CL         38.3470    7.2790   33.3690 Cl    837  CCL837     -0.0870
   4325 CL         35.5360    6.7260   33.9560 Cl    837  CCL837     -0.0870
   4326 HX         37.3180    6.0110   35.1020 H     837  CCL837      0.0806
   4327 C          15.2300    6.2530   39.8680 C.3   838  CCL838      0.1805
   4328 CL         13.7150    7.0690   40.1630 Cl    838  CCL838     -0.0870
   4329 CL         16.2240    6.8270   38.5160 Cl    838  CCL838     -0.0870
   4330 CL         15.2110    4.4530   39.8690 Cl    838  CCL838     -0.0870
   4331 HX         15.8190    6.4340   40.7630 H     838  CCL838      0.0806
   4332 C          29.2490    7.4500    7.0780 C.3   839  CCL839      0.1805
   4333 CL         29.0610    6.2350    8.3520 Cl    839  CCL839     -0.0870
   4334 CL         29.9160    6.6960    5.6640 Cl    839  CCL839     -0.0870
   4335 CL         30.4240    8.7220    7.3960 Cl    839  CCL839     -0.0870
   4336 HX         28.3190    7.9770    6.8880 H     839  CCL839      0.0806
   4337 C          -6.7570   31.2730   19.3840 C.3   840  CCL840      0.1805
   4338 CL         -6.3930   29.6960   18.6830 Cl    840  CCL840     -0.0870
   4339 CL         -5.6390   32.4710   18.7890 Cl    840  CCL840     -0.0870
   4340 CL         -6.7000   31.1860   21.1340 Cl    840  CCL840     -0.0870
   4341 HX         -7.7150   31.6050   18.9970 H     840  CCL840      0.0806
   4342 C          20.6720   42.8840   38.3170 C.3   841  CCL841      0.1805
   4343 CL         21.3860   41.4660   37.5120 Cl    841  CCL841     -0.0870
   4344 CL         21.7970   44.2920   38.0340 Cl    841  CCL841     -0.0870
   4345 CL         20.3120   42.6940   40.0240 Cl    841  CCL841     -0.0870
   4346 HX         19.7200   43.0140   37.8110 H     841  CCL841      0.0806
   4347 C          47.1330   19.7500   43.1030 C.3   842  CCL842      0.1805
   4348 CL         47.5560   21.4100   42.7620 Cl    842  CCL842     -0.0870
   4349 CL         46.4250   18.9950   41.6640 Cl    842  CCL842     -0.0870
   4350 CL         46.2150   19.5440   44.5990 Cl    842  CCL842     -0.0870
   4351 HX         48.0260   19.1600   43.2840 H     842  CCL842      0.0806
   4352 C          13.8890   11.3900   20.8840 C.3   843  CCL843      0.1805
   4353 CL         15.0190   10.0280   20.6140 Cl    843  CCL843     -0.0870
   4354 CL         14.1810   12.7170   19.7940 Cl    843  CCL843     -0.0870
   4355 CL         13.9190   11.9550   22.5890 Cl    843  CCL843     -0.0870
   4356 HX         12.8860   11.0280   20.6740 H     843  CCL843      0.0806
   4357 C          15.4340    0.6390   18.4020 C.3   844  CCL844      0.1805
   4358 CL         16.8030   -0.4310   18.9840 Cl    844  CCL844     -0.0870
   4359 CL         13.8740   -0.1000   18.8330 Cl    844  CCL844     -0.0870
   4360 CL         15.6200    0.9160   16.6840 Cl    844  CCL844     -0.0870
   4361 HX         15.5100    1.6010   18.9000 H     844  CCL844      0.0806
   4362 C          17.0860   40.8580   40.1440 C.3   845  CCL845      0.1805
   4363 CL         16.6260   42.2070   39.1540 Cl    845  CCL845     -0.0870
   4364 CL         17.1820   39.3620   39.2610 Cl    845  CCL845     -0.0870
   4365 CL         16.1730   40.6250   41.6320 Cl    845  CCL845     -0.0870
   4366 HX         18.0720   41.1110   40.5230 H     845  CCL845      0.0806
   4367 C          27.3760   20.7090   -0.2420 C.3   846  CCL846      0.1805
   4368 CL         27.2790   21.7920   -1.6680 Cl    846  CCL846     -0.0870
   4369 CL         28.8600   20.9620    0.5740 Cl    846  CCL846     -0.0870
   4370 CL         27.2300   18.9750   -0.6010 Cl    846  CCL846     -0.0870
   4371 HX         26.5270   20.9300    0.3970 H     846  CCL846      0.0806
   4372 C          42.2340   27.7210   21.1830 C.3   847  CCL847      0.1805
   4373 CL         40.6820   28.6000   21.5060 Cl    847  CCL847     -0.0870
   4374 CL         43.1310   28.4660   19.8430 Cl    847  CCL847     -0.0870
   4375 CL         42.0170   26.0690   20.7240 Cl    847  CCL847     -0.0870
   4376 HX         42.9750   27.8860   21.9600 H     847  CCL847      0.0806
   4377 C          30.9740   44.5780   24.2290 C.3   848  CCL848      0.1805
   4378 CL         31.1570   43.7720   22.7120 Cl    848  CCL848     -0.0870
   4379 CL         32.3280   44.2260   25.3540 Cl    848  CCL848     -0.0870
   4380 CL         29.4220   44.2370   24.8530 Cl    848  CCL848     -0.0870
   4381 HX         31.0530   45.6390   24.0110 H     848  CCL848      0.0806
   4382 C          27.8700   18.8470   41.7800 C.3   849  CCL849      0.1805
   4383 CL         29.0910   19.6140   42.6780 Cl    849  CCL849     -0.0870
   4384 CL         27.4390   19.7610   40.3360 Cl    849  CCL849     -0.0870
   4385 CL         26.5730   18.5030   42.9650 Cl    849  CCL849     -0.0870
   4386 HX         28.2560   17.8740   41.4910 H     849  CCL849      0.0806
   4387 C          33.2180   31.3700   33.3690 C.3   850  CCL850      0.1805
   4388 CL         33.0000   30.3910   31.9030 Cl    850  CCL850     -0.0870
   4389 CL         33.9560   32.9190   32.9890 Cl    850  CCL850     -0.0870
   4390 CL         34.1520   30.5120   34.6180 Cl    850  CCL850     -0.0870
   4391 HX         32.2580   31.5780   33.8310 H     850  CCL850      0.0806
   4392 C           2.9760   22.8130   42.2300 C.3   851  CCL851      0.1805
   4393 CL          1.3450   22.2060   42.1560 Cl    851  CCL851     -0.0870
   4394 CL          3.3710   23.5110   40.6550 Cl    851  CCL851     -0.0870
   4395 CL          4.1670   21.6430   42.7660 Cl    851  CCL851     -0.0870
   4396 HX          2.9270   23.6570   42.9110 H     851  CCL851      0.0806
   4397 C          30.9120   22.2280   45.4510 C.3   852  CCL852      0.1805
   4398 CL         32.4090   22.7680   44.7340 Cl    852  CCL852     -0.0870
   4399 CL         29.4880   23.2500   45.0360 Cl    852  CCL852     -0.0870
   4400 CL         31.0590   21.8980   47.1800 Cl    852  CCL852     -0.0870
   4401 HX         30.6590   21.2490   45.0540 H     852  CCL852      0.0806
   4402 C          37.9410   23.0240   14.9760 C.3   853  CCL853      0.1805
   4403 CL         38.5180   22.1880   16.4100 Cl    853  CCL853     -0.0870
   4404 CL         38.1830   24.7340   15.0510 Cl    853  CCL853     -0.0870
   4405 CL         36.2290   22.7490   14.7370 Cl    853  CCL853     -0.0870
   4406 HX         38.5910   22.6250   14.2030 H     853  CCL853      0.0806
   4407 C          11.6080   42.2090    8.1800 C.3   854  CCL854      0.1805
   4408 CL         10.3400   41.8660    6.9620 Cl    854  CCL854     -0.0870
   4409 CL         13.1960   42.5130    7.4070 Cl    854  CCL854     -0.0870
   4410 CL         11.7450   40.7630    9.2270 Cl    854  CCL854     -0.0870
   4411 HX         11.3470   43.1340    8.6860 H     854  CCL854      0.0806
   4412 C           1.8220    8.0250   29.2030 C.3   855  CCL855      0.1805
   4413 CL          3.5510    8.0230   29.4470 Cl    855  CCL855     -0.0870
   4414 CL          0.9730    9.3240   30.0460 Cl    855  CCL855     -0.0870
   4415 CL          1.0220    6.4510   29.4920 Cl    855  CCL855     -0.0870
   4416 HX          1.6930    8.2350   28.1450 H     855  CCL855      0.0806
   4417 C          31.6900   26.2240   41.5210 C.3   856  CCL856      0.1805
   4418 CL         31.9150   27.5260   42.7180 Cl    856  CCL856     -0.0870
   4419 CL         31.2310   24.7590   42.2980 Cl    856  CCL856     -0.0870
   4420 CL         33.2660   26.0770   40.5540 Cl    856  CCL856     -0.0870
   4421 HX         30.9100   26.4980   40.8170 H     856  CCL856      0.0806
   4422 C          56.7130    2.8350   41.3070 C.3   857  CCL857      0.1805
   4423 CL         57.5720    1.7380   42.4380 Cl    857  CCL857     -0.0870
   4424 CL         55.3120    3.7130   42.1770 Cl    857  CCL857     -0.0870
   4425 CL         56.2130    2.0060   39.9860 Cl    857  CCL857     -0.0870
   4426 HX         57.3390    3.5640   40.8010 H     857  CCL857      0.0806
   4427 C          52.6010   10.7900   28.2040 C.3   858  CCL858      0.1805
   4428 CL         53.8270    9.7790   27.4350 Cl    858  CCL858     -0.0870
   4429 CL         52.6210   10.5760   29.9290 Cl    858  CCL858     -0.0870
   4430 CL         51.0360   10.5070   27.4550 Cl    858  CCL858     -0.0870
   4431 HX         52.7680   11.8410   27.9870 H     858  CCL858      0.0806
   4432 C          41.6940   32.1180   19.4060 C.3   859  CCL859      0.1805
   4433 CL         40.0500   32.0550   20.1480 Cl    859  CCL859     -0.0870
   4434 CL         41.9890   30.9990   18.1440 Cl    859  CCL859     -0.0870
   4435 CL         42.8560   32.0270   20.6700 Cl    859  CCL859     -0.0870
   4436 HX         41.7110   33.1570   19.0880 H     859  CCL859      0.0806
   4437 C          21.0620    1.9110    9.9020 C.3   860  CCL860      0.1805
   4438 CL         22.3820    1.7180    8.6980 Cl    860  CCL860     -0.0870
   4439 CL         19.6070    1.0110    9.3900 Cl    860  CCL860     -0.0870
   4440 CL         20.5270    3.5760   10.0420 Cl    860  CCL860     -0.0870
   4441 HX         21.3750    1.5140   10.8630 H     860  CCL860      0.0806
   4442 C          19.7050   39.6030   10.7740 C.3   861  CCL861      0.1805
   4443 CL         19.5650   41.1070    9.8280 Cl    861  CCL861     -0.0870
   4444 CL         19.8600   38.3190    9.5880 Cl    861  CCL861     -0.0870
   4445 CL         18.4130   39.2310   11.9160 Cl    861  CCL861     -0.0870
   4446 HX         20.6440   39.7650   11.2950 H     861  CCL861      0.0806
   4447 C           6.5110   21.2260   18.2150 C.3   862  CCL862      0.1805
   4448 CL          7.8890   22.2790   18.5980 Cl    862  CCL862     -0.0870
   4449 CL          5.0810   22.3060   17.9840 Cl    862  CCL862     -0.0870
   4450 CL          6.2890   20.1110   19.5070 Cl    862  CCL862     -0.0870
   4451 HX          6.6890   20.5600   17.3760 H     862  CCL862      0.0806
   4452 C          27.0380   36.4820    4.8860 C.3   863  CCL863      0.1805
   4453 CL         28.7810   36.2280    5.1290 Cl    863  CCL863     -0.0870
   4454 CL         26.1360   35.0300    4.8630 Cl    863  CCL863     -0.0870
   4455 CL         26.6830   37.4010    3.3730 Cl    863  CCL863     -0.0870
   4456 HX         26.6280   37.1240    5.6600 H     863  CCL863      0.0806
   4457 C          21.7800   10.0240    5.2920 C.3   864  CCL864      0.1805
   4458 CL         22.6290    8.8760    4.1930 Cl    864  CCL864     -0.0870
   4459 CL         21.2160    9.3450    6.7510 Cl    864  CCL864     -0.0870
   4460 CL         20.4900   10.7680    4.5060 Cl    864  CCL864     -0.0870
   4461 HX         22.4830   10.8130    5.5420 H     864  CCL864      0.0806
   4462 C          43.4330   22.7250   24.3030 C.3   865  CCL865      0.1805
   4463 CL         45.1080   22.6420   23.7680 Cl    865  CCL865     -0.0870
   4464 CL         42.5080   23.8900   23.2550 Cl    865  CCL865     -0.0870
   4465 CL         43.2650   23.0390   26.0210 Cl    865  CCL865     -0.0870
   4466 HX         43.0180   21.7430   24.0940 H     865  CCL865      0.0806
   4467 C          16.4750   12.6360   14.6820 C.3   866  CCL866      0.1805
   4468 CL         15.4650   12.0970   15.9820 Cl    866  CCL866     -0.0870
   4469 CL         17.6810   11.3840   14.3720 Cl    866  CCL866     -0.0870
   4470 CL         17.1210   14.2470   14.8330 Cl    866  CCL866     -0.0870
   4471 HX         15.8920   12.6170   13.7660 H     866  CCL866      0.0806
   4472 C          43.6790   -1.6510   40.3690 C.3   867  CCL867      0.1805
   4473 CL         42.9500   -3.1070   39.6640 Cl    867  CCL867     -0.0870
   4474 CL         44.3280   -0.4590   39.2230 Cl    867  CCL867     -0.0870
   4475 CL         44.6600   -1.9610   41.8040 Cl    867  CCL867     -0.0870
   4476 HX         42.7770   -1.1780   40.7470 H     867  CCL867      0.0806
   4477 C          28.5460    2.4820    4.0490 C.3   868  CCL868      0.1805
   4478 CL         27.8500    1.0320    4.7940 Cl    868  CCL868     -0.0870
   4479 CL         30.2370    2.6380    4.5020 Cl    868  CCL868     -0.0870
   4480 CL         27.7060    3.9560    4.4900 Cl    868  CCL868     -0.0870
   4481 HX         28.4380    2.2620    2.9910 H     868  CCL868      0.0806
   4482 C          18.4610   11.1640   24.0730 C.3   869  CCL869      0.1805
   4483 CL         18.0840   12.9040   24.3230 Cl    869  CCL869     -0.0870
   4484 CL         20.0450   10.9470   23.3800 Cl    869  CCL869     -0.0870
   4485 CL         17.3680   10.4450   22.9210 Cl    869  CCL869     -0.0870
   4486 HX         18.4440   10.4950   24.9290 H     869  CCL869      0.0806
   4487 C          12.6870    3.5540   32.1350 C.3   870  CCL870      0.1805
   4488 CL         11.2710    4.3970   31.4990 Cl    870  CCL870     -0.0870
   4489 CL         12.4910    3.1280   33.8420 Cl    870  CCL870     -0.0870
   4490 CL         14.2500    4.3210   31.9070 Cl    870  CCL870     -0.0870
   4491 HX         12.7740    2.6020   31.6190 H     870  CCL870      0.0806
   4492 C          31.6980    2.7430   -0.7480 C.3   871  CCL871      0.1805
   4493 CL         31.5130    2.2110    0.8960 Cl    871  CCL871     -0.0870
   4494 CL         32.5290    4.3350   -0.6750 Cl    871  CCL871     -0.0870
   4495 CL         30.1020    2.7390   -1.5410 Cl    871  CCL871     -0.0870
   4496 HX         32.3840    2.0770   -1.2620 H     871  CCL871      0.0806
   4497 C          15.8490    1.5640   48.9160 C.3   872  CCL872      0.1805
   4498 CL         16.1400    3.3150   48.7400 Cl    872  CCL872     -0.0870
   4499 CL         14.9690    0.8820   47.5250 Cl    872  CCL872     -0.0870
   4500 CL         15.0130    1.2110   50.3520 Cl    872  CCL872     -0.0870
   4501 HX         16.7580    0.9690   48.9270 H     872  CCL872      0.0806
   4502 C          10.6910   13.5850   27.4070 C.3   873  CCL873      0.1805
   4503 CL          9.5360   14.9130   27.4260 Cl    873  CCL873     -0.0870
   4504 CL         11.1330   13.2670   25.7390 Cl    873  CCL873     -0.0870
   4505 CL         10.0920   12.1120   28.1870 Cl    873  CCL873     -0.0870
   4506 HX         11.5370   13.9890   27.9570 H     873  CCL873      0.0806
   4507 C          11.9330   23.1190   49.0950 C.3   874  CCL874      0.1805
   4508 CL         11.6880   22.7340   50.7220 Cl    874  CCL874     -0.0870
   4509 CL         12.6810   24.7010   48.9450 Cl    874  CCL874     -0.0870
   4510 CL         10.5420   23.1320   48.0460 Cl    874  CCL874     -0.0870
   4511 HX         12.6360   22.3540   48.7790 H     874  CCL874      0.0806
   4512 C          15.6370   -9.7660   33.4460 C.3   875  CCL875      0.1805
   4513 CL         15.0870   -8.0940   33.4340 Cl    875  CCL875     -0.0870
   4514 CL         15.0810  -10.5910   34.9120 Cl    875  CCL875     -0.0870
   4515 CL         17.3860   -9.9930   33.3390 Cl    875  CCL875     -0.0870
   4516 HX         15.1520  -10.1980   32.5760 H     875  CCL875      0.0806
   4517 C          22.5300   31.4050   32.4800 C.3   876  CCL876      0.1805
   4518 CL         21.2070   31.3010   33.6300 Cl    876  CCL876     -0.0870
   4519 CL         23.5780   32.8000   32.8660 Cl    876  CCL876     -0.0870
   4520 CL         21.9000   31.5450   30.7860 Cl    876  CCL876     -0.0870
   4521 HX         23.2050   30.5750   32.6650 H     876  CCL876      0.0806
   4522 C          37.3360   31.3810   22.9660 C.3   877  CCL877      0.1805
   4523 CL         36.8000   29.8900   22.1600 Cl    877  CCL877     -0.0870
   4524 CL         37.3030   32.8560   22.0250 Cl    877  CCL877     -0.0870
   4525 CL         38.9580   31.2070   23.5820 Cl    877  CCL877     -0.0870
   4526 HX         36.6520   31.4830   23.8040 H     877  CCL877      0.0806
   4527 C          32.4030   35.7140   36.7650 C.3   878  CCL878      0.1805
   4528 CL         32.9530   35.1880   38.3500 Cl    878  CCL878     -0.0870
   4529 CL         32.4560   34.4240   35.5800 Cl    878  CCL878     -0.0870
   4530 CL         33.3240   37.1370   36.2110 Cl    878  CCL878     -0.0870
   4531 HX         31.3620   36.0220   36.7490 H     878  CCL878      0.0806
   4532 C          36.1130    3.3550   37.4830 C.3   879  CCL879      0.1805
   4533 CL         36.2760    2.1360   38.7470 Cl    879  CCL879     -0.0870
   4534 CL         36.1600    5.1290   37.8910 Cl    879  CCL879     -0.0870
   4535 CL         34.6190    3.1100   36.5580 Cl    879  CCL879     -0.0870
   4536 HX         36.9150    3.0820   36.8030 H     879  CCL879      0.0806
   4537 C          38.4810   41.8390   37.8720 C.3   880  CCL880      0.1805
   4538 CL         39.6580   42.8730   37.0160 Cl    880  CCL880     -0.0870
   4539 CL         36.7440   42.1320   37.4540 Cl    880  CCL880     -0.0870
   4540 CL         38.7000   41.8690   39.6690 Cl    880  CCL880     -0.0870
   4541 HX         38.7020   40.8130   37.5950 H     880  CCL880      0.0806
   4542 C           4.6980   22.7840   25.3880 C.3   881  CCL881      0.1805
   4543 CL          6.0850   22.7400   26.5760 Cl    881  CCL881     -0.0870
   4544 CL          3.1820   22.6930   26.2660 Cl    881  CCL881     -0.0870
   4545 CL          4.7930   21.4630   24.3360 Cl    881  CCL881     -0.0870
   4546 HX          4.6650   23.7360   24.8660 H     881  CCL881      0.0806
   4547 C          31.5870   47.0830    0.8460 C.3   882  CCL882      0.1805
   4548 CL         30.2370   47.9140    1.7220 Cl    882  CCL882     -0.0870
   4549 CL         32.5830   46.0050    1.8900 Cl    882  CCL882     -0.0870
   4550 CL         32.4500   48.1690   -0.2300 Cl    882  CCL882     -0.0870
   4551 HX         30.9840   46.4230    0.2280 H     882  CCL882      0.0806
   4552 C           2.2320   15.7930   22.4500 C.3   883  CCL883      0.1805
   4553 CL          3.4790   17.0690   22.0420 Cl    883  CCL883     -0.0870
   4554 CL          2.4500   15.2210   24.0730 Cl    883  CCL883     -0.0870
   4555 CL          2.1830   14.5490   21.1670 Cl    883  CCL883     -0.0870
   4556 HX          1.2820   16.3190   22.4500 H     883  CCL883      0.0806
   4557 C          24.8770   12.4800    3.3520 C.3   884  CCL884      0.1805
   4558 CL         26.5600   13.0180    3.0280 Cl    884  CCL884     -0.0870
   4559 CL         24.8920   11.9750    5.0550 Cl    884  CCL884     -0.0870
   4560 CL         24.3040   11.3130    2.2380 Cl    884  CCL884     -0.0870
   4561 HX         24.3130   13.4080    3.3750 H     884  CCL884      0.0806
   4562 C          18.0450   13.2860   32.4000 C.3   885  CCL885      0.1805
   4563 CL         18.6790   13.0080   30.7830 Cl    885  CCL885     -0.0870
   4564 CL         18.9420   14.5920   33.2430 Cl    885  CCL885     -0.0870
   4565 CL         18.1050   11.8050   33.3130 Cl    885  CCL885     -0.0870
   4566 HX         16.9960   13.5480   32.3030 H     885  CCL885      0.0806
   4567 C          -2.3610   24.3870   50.4200 C.3   886  CCL886      0.1805
   4568 CL         -2.1680   26.1000   50.1030 Cl    886  CCL886     -0.0870
   4569 CL         -2.9510   23.5670   48.9980 Cl    886  CCL886     -0.0870
   4570 CL         -3.3360   24.1250   51.7860 Cl    886  CCL886     -0.0870
   4571 HX         -1.3630   24.1060   50.7400 H     886  CCL886      0.0806
   4572 C           5.0840   27.4250   49.9140 C.3   887  CCL887      0.1805
   4573 CL          5.8120   28.6990   48.9080 Cl    887  CCL887     -0.0870
   4574 CL          5.5330   25.8480   49.2050 Cl    887  CCL887     -0.0870
   4575 CL          3.2730   27.6460   49.9680 Cl    887  CCL887     -0.0870
   4576 HX          5.4180   27.4500   50.9470 H     887  CCL887      0.0806
   4577 C          34.4440    9.9540   31.4250 C.3   888  CCL888      0.1805
   4578 CL         35.9570    9.0520   31.3710 Cl    888  CCL888     -0.0870
   4579 CL         34.3030   11.0110   29.9610 Cl    888  CCL888     -0.0870
   4580 CL         34.2200   10.8700   32.9260 Cl    888  CCL888     -0.0870
   4581 HX         33.6220    9.2530   31.5310 H     888  CCL888      0.0806
   4582 C          10.9640    5.9060   17.2440 C.3   889  CCL889      0.1805
   4583 CL         10.1290    7.3270   16.5170 Cl    889  CCL889     -0.0870
   4584 CL         10.6010    5.8640   19.0040 Cl    889  CCL889     -0.0870
   4585 CL         12.6220    5.7700   16.8460 Cl    889  CCL889     -0.0870
   4586 HX         10.4500    5.0750   16.7690 H     889  CCL889      0.0806
   4587 C          11.2890    6.8740   23.6310 C.3   890  CCL890      0.1805
   4588 CL         12.4610    7.6360   24.6940 Cl    890  CCL890     -0.0870
   4589 CL          9.7370    7.5830   23.8800 Cl    890  CCL890     -0.0870
   4590 CL         11.1540    5.1730   24.0050 Cl    890  CCL890     -0.0870
   4591 HX         11.5980    6.9460   22.5920 H     890  CCL890      0.0806
   4592 C          32.9650   13.4180   23.7690 C.3   891  CCL891      0.1805
   4593 CL         33.3620   14.7020   22.5820 Cl    891  CCL891     -0.0870
   4594 CL         33.2900   13.7690   25.4860 Cl    891  CCL891     -0.0870
   4595 CL         33.7590   11.9100   23.3530 Cl    891  CCL891     -0.0870
   4596 HX         31.8980   13.2190   23.7220 H     891  CCL891      0.0806
   4597 C          39.2220   18.7430   -0.3240 C.3   892  CCL892      0.1805
   4598 CL         40.7740   19.1480   -0.9950 Cl    892  CCL892     -0.0870
   4599 CL         38.5660   19.9850    0.7930 Cl    892  CCL892     -0.0870
   4600 CL         39.2540   17.1870    0.4110 Cl    892  CCL892     -0.0870
   4601 HX         38.4510   18.6490   -1.0830 H     892  CCL892      0.0806
   4602 C          12.3670   11.2070   32.7570 C.3   893  CCL893      0.1805
   4603 CL         11.6420    9.5670   32.9710 Cl    893  CCL893     -0.0870
   4604 CL         12.1580   11.9050   31.1600 Cl    893  CCL893     -0.0870
   4605 CL         14.0230   11.2790   33.4150 Cl    893  CCL893     -0.0870
   4606 HX         11.8590   11.7850   33.5240 H     893  CCL893      0.0806
   4607 C           5.6750   39.2580   19.5050 C.3   894  CCL894      0.1805
   4608 CL          5.3260   38.5110   17.8710 Cl    894  CCL894     -0.0870
   4609 CL          7.3130   38.9210   20.0380 Cl    894  CCL894     -0.0870
   4610 CL          4.4840   38.6460   20.7060 Cl    894  CCL894     -0.0870
   4611 HX          5.4980   40.3300   19.4920 H     894  CCL894      0.0806
   4612 C           1.3290   32.6030   26.6290 C.3   895  CCL895      0.1805
   4613 CL          2.7090   31.5060   26.4440 Cl    895  CCL895     -0.0870
   4614 CL         -0.2030   31.9220   26.1300 Cl    895  CCL895     -0.0870
   4615 CL          1.6180   34.0140   25.6630 Cl    895  CCL895     -0.0870
   4616 HX          1.2820   32.8580   27.6840 H     895  CCL895      0.0806
   4617 C          17.4980    4.3210   15.3970 C.3   896  CCL896      0.1805
   4618 CL         18.4070    5.6160   16.2320 Cl    896  CCL896     -0.0870
   4619 CL         18.5080    3.4170   14.2570 Cl    896  CCL896     -0.0870
   4620 CL         16.1400    5.0370   14.5520 Cl    896  CCL896     -0.0870
   4621 HX         17.2070    3.5990   16.1530 H     896  CCL896      0.0806
   4622 C          -1.8810   28.9630   21.8420 C.3   897  CCL897      0.1805
   4623 CL         -0.1720   29.1820   22.0850 Cl    897  CCL897     -0.0870
   4624 CL         -2.4410   30.4780   21.0590 Cl    897  CCL897     -0.0870
   4625 CL         -2.7510   28.7960   23.4070 Cl    897  CCL897     -0.0870
   4626 HX         -2.0220   28.0390   21.2890 H     897  CCL897      0.0806
   4627 C          20.2010   18.1900   14.5530 C.3   898  CCL898      0.1805
   4628 CL         20.6510   17.2830   13.1410 Cl    898  CCL898     -0.0870
   4629 CL         21.5170   19.2300   15.0590 Cl    898  CCL898     -0.0870
   4630 CL         19.6510   17.0670   15.8040 Cl    898  CCL898     -0.0870
   4631 HX         19.3420   18.8400   14.4140 H     898  CCL898      0.0806
   4632 C          33.9890   22.0140    1.0160 C.3   899  CCL899      0.1805
   4633 CL         34.5260   21.0200    2.3340 Cl    899  CCL899     -0.0870
   4634 CL         34.9500   21.7290   -0.5030 Cl    899  CCL899     -0.0870
   4635 CL         33.8330   23.6590    1.5040 Cl    899  CCL899     -0.0870
   4636 HX         33.0180   21.5850    0.7880 H     899  CCL899      0.0806
   4637 C          40.8130   17.8540   35.8560 C.3   900  CCL900      0.1805
   4638 CL         41.4360   18.2500   34.2350 Cl    900  CCL900     -0.0870
   4639 CL         39.2340   17.1230   35.6990 Cl    900  CCL900     -0.0870
   4640 CL         40.5740   19.3270   36.8510 Cl    900  CCL900     -0.0870
   4641 HX         41.4140   17.2160   36.4980 H     900  CCL900      0.0806
   4642 C          27.2810   20.7450    7.7370 C.3   901  CCL901      0.1805
   4643 CL         27.7820   19.2260    8.4100 Cl    901  CCL901     -0.0870
   4644 CL         26.3830   20.4860    6.1770 Cl    901  CCL901     -0.0870
   4645 CL         28.6350   21.8580    7.4200 Cl    901  CCL901     -0.0870
   4646 HX         26.6080   21.1660    8.4780 H     901  CCL901      0.0806
   4647 C          46.9280   27.9380   36.3810 C.3   902  CCL902      0.1805
   4648 CL         45.4560   26.9930   36.1490 Cl    902  CCL902     -0.0870
   4649 CL         47.5620   28.5790   34.8280 Cl    902  CCL902     -0.0870
   4650 CL         48.1580   26.9370   37.0540 Cl    902  CCL902     -0.0870
   4651 HX         46.6820   28.7670   37.0380 H     902  CCL902      0.0806
   4652 C           1.9180   -2.1840   17.8050 C.3   903  CCL903      0.1805
   4653 CL          3.4200   -2.6930   18.5060 Cl    903  CCL903     -0.0870
   4654 CL          1.9900   -2.5100   16.0600 Cl    903  CCL903     -0.0870
   4655 CL          1.6150   -0.5420   18.3100 Cl    903  CCL903     -0.0870
   4656 HX          1.1100   -2.7690   18.2350 H     903  CCL903      0.0806
   4657 C           5.9230   28.5760   16.4210 C.3   904  CCL904      0.1805
   4658 CL          7.3000   28.2540   17.5270 Cl    904  CCL904     -0.0870
   4659 CL          5.2330   26.9960   16.0210 Cl    904  CCL904     -0.0870
   4660 CL          6.3320   29.4170   14.9890 Cl    904  CCL904     -0.0870
   4661 HX          5.1320   29.1060   16.9430 H     904  CCL904      0.0806
   4662 C          27.2740   36.6470   43.3800 C.3   905  CCL905      0.1805
   4663 CL         27.1610   35.6210   41.8720 Cl    905  CCL905     -0.0870
   4664 CL         28.6150   36.2140   44.4160 Cl    905  CCL905     -0.0870
   4665 CL         25.8420   36.7200   44.2990 Cl    905  CCL905     -0.0870
   4666 HX         27.5950   37.6070   42.9880 H     905  CCL905      0.0806
   4667 C          27.0410    1.2620   -0.2460 C.3   906  CCL906      0.1805
   4668 CL         25.8400    1.3690   -1.5280 Cl    906  CCL906     -0.0870
   4669 CL         28.2670   -0.0000   -0.4340 Cl    906  CCL906     -0.0870
   4670 CL         26.2260    1.2800    1.3790 Cl    906  CCL906     -0.0870
   4671 HX         27.5200    2.2360   -0.2850 H     906  CCL906      0.0806
   4672 C          -0.1450   19.5750   38.7740 C.3   907  CCL907      0.1805
   4673 CL         -0.0780   19.1670   40.4590 Cl    907  CCL907     -0.0870
   4674 CL          0.2080   21.2720   38.7330 Cl    907  CCL907     -0.0870
   4675 CL         -1.6100   19.2260   37.9210 Cl    907  CCL907     -0.0870
   4676 HX          0.6630   19.0070   38.3230 H     907  CCL907      0.0806
   4677 C          33.8830   24.6370   36.1750 C.3   908  CCL908      0.1805
   4678 CL         34.6770   24.1070   37.6990 Cl    908  CCL908     -0.0870
   4679 CL         34.7280   24.0430   34.7850 Cl    908  CCL908     -0.0870
   4680 CL         33.7660   26.4000   36.2620 Cl    908  CCL908     -0.0870
   4681 HX         32.8870   24.2110   36.0980 H     908  CCL908      0.0806
   4682 C           8.7330   -8.8740   25.7600 C.3   909  CCL909      0.1805
   4683 CL          7.2080   -9.3880   25.0200 Cl    909  CCL909     -0.0870
   4684 CL          8.9080   -9.6930   27.3350 Cl    909  CCL909     -0.0870
   4685 CL          8.7600   -7.1490   26.0850 Cl    909  CCL909     -0.0870
   4686 HX          9.5530   -9.1230   25.0930 H     909  CCL909      0.0806
   4687 C          21.3750   -6.1360   25.1790 C.3   910  CCL910      0.1805
   4688 CL         22.6020   -6.6780   24.0850 Cl    910  CCL910     -0.0870
   4689 CL         21.2480   -7.3130   26.5630 Cl    910  CCL910     -0.0870
   4690 CL         19.8510   -5.8700   24.3400 Cl    910  CCL910     -0.0870
   4691 HX         21.7210   -5.1700   25.5360 H     910  CCL910      0.0806
   4692 C           3.2970    3.2870   35.6530 C.3   911  CCL911      0.1805
   4693 CL          1.8660    4.3230   35.8210 Cl    911  CCL911     -0.0870
   4694 CL          3.0900    1.7080   36.4490 Cl    911  CCL911     -0.0870
   4695 CL          4.8290    4.0860   35.9750 Cl    911  CCL911     -0.0870
   4696 HX          3.2910    3.0660   34.5900 H     911  CCL911      0.0806
   4697 C          21.7310   22.8830   49.3690 C.3   912  CCL912      0.1805
   4698 CL         22.0290   22.6980   47.6390 Cl    912  CCL912     -0.0870
   4699 CL         21.9230   24.5260   50.0500 Cl    912  CCL912     -0.0870
   4700 CL         22.6210   21.7840   50.2980 Cl    912  CCL912     -0.0870
   4701 HX         20.6830   22.6200   49.4810 H     912  CCL912      0.0806
   4702 C          21.6590   12.4470   26.5600 C.3   913  CCL913      0.1805
   4703 CL         23.1270   13.4640   26.5140 Cl    913  CCL913     -0.0870
   4704 CL         20.7660   12.6400   28.0080 Cl    913  CCL913     -0.0870
   4705 CL         22.0460   10.7900   26.1740 Cl    913  CCL913     -0.0870
   4706 HX         21.0710   12.8950   25.7640 H     913  CCL913      0.0806
   4707 C          14.1890   37.5850   15.8330 C.3   914  CCL914      0.1805
   4708 CL         13.1180   38.8860   15.7590 Cl    914  CCL914     -0.0870
   4709 CL         14.8690   37.5790   17.4420 Cl    914  CCL914     -0.0870
   4710 CL         15.3090   37.6350   14.4660 Cl    914  CCL914     -0.0870
   4711 HX         13.6300   36.6690   15.6680 H     914  CCL914      0.0806
   4712 C           3.3330   30.4670   35.7350 C.3   915  CCL915      0.1805
   4713 CL          1.9710   31.4220   36.1310 Cl    915  CCL915     -0.0870
   4714 CL          4.3640   31.1580   34.4950 Cl    915  CCL915     -0.0870
   4715 CL          2.9260   28.8590   35.3000 Cl    915  CCL915     -0.0870
   4716 HX          4.0060   30.4430   36.5870 H     915  CCL915      0.0806
   4717 C           1.5620   26.0440   32.0180 C.3   916  CCL916      0.1805
   4718 CL          3.0450   26.6800   31.2480 Cl    916  CCL916     -0.0870
   4719 CL          1.6000   24.2800   32.1010 Cl    916  CCL916     -0.0870
   4720 CL          0.1360   26.6520   31.1120 Cl    916  CCL916     -0.0870
   4721 HX          1.5140   26.5280   32.9890 H     916  CCL916      0.0806
   4722 C          30.6480   24.0910   38.6410 C.3   917  CCL917      0.1805
   4723 CL         30.9070   25.6560   37.9090 Cl    917  CCL917     -0.0870
   4724 CL         31.1320   22.7740   37.5170 Cl    917  CCL917     -0.0870
   4725 CL         29.0330   23.7720   39.3530 Cl    917  CCL917     -0.0870
   4726 HX         31.3570   24.0890   39.4650 H     917  CCL917      0.0806
   4727 C           6.2550   26.3960   34.7110 C.3   918  CCL918      0.1805
   4728 CL          5.8990   27.5090   33.3320 Cl    918  CCL918     -0.0870
   4729 CL          5.5560   24.8380   34.1470 Cl    918  CCL918     -0.0870
   4730 CL          5.6260   26.9480   36.2820 Cl    918  CCL918     -0.0870
   4731 HX          7.3380   26.3190   34.6860 H     918  CCL918      0.0806
   4732 C           3.4290   37.8040   14.1360 C.3   919  CCL919      0.1805
   4733 CL          3.2950   38.6730   12.5870 Cl    919  CCL919     -0.0870
   4734 CL          5.0420   37.4350   14.6170 Cl    919  CCL919     -0.0870
   4735 CL          2.3160   36.4310   14.2900 Cl    919  CCL919     -0.0870
   4736 HX          3.1840   38.5810   14.8530 H     919  CCL919      0.0806
   4737 C          22.3860   -1.1540   26.3320 C.3   920  CCL920      0.1805
   4738 CL         23.7330   -0.9660   25.2620 Cl    920  CCL920     -0.0870
   4739 CL         22.6920   -0.3780   27.9570 Cl    920  CCL920     -0.0870
   4740 CL         21.9550   -2.7790   26.5750 Cl    920  CCL920     -0.0870
   4741 HX         21.5530   -0.6040   25.9050 H     920  CCL920      0.0806
   4742 C          -2.3370   25.7060   45.1900 C.3   921  CCL921      0.1805
   4743 CL         -2.5220   27.0100   46.4440 Cl    921  CCL921     -0.0870
   4744 CL         -0.5760   25.5880   44.9360 Cl    921  CCL921     -0.0870
   4745 CL         -3.1010   26.2320   43.7550 Cl    921  CCL921     -0.0870
   4746 HX         -2.7160   24.7600   45.5630 H     921  CCL921      0.0806
   4747 C          13.3320   33.8770   47.1630 C.3   922  CCL922      0.1805
   4748 CL         13.5620   32.5330   45.9790 Cl    922  CCL922     -0.0870
   4749 CL         13.5970   33.3650   48.8290 Cl    922  CCL922     -0.0870
   4750 CL         11.8030   34.6920   46.8950 Cl    922  CCL922     -0.0870
   4751 HX         14.0620   34.6640   46.9950 H     922  CCL922      0.0806
   4752 C           7.3700   10.0490    8.7670 C.3   923  CCL923      0.1805
   4753 CL          6.8950    8.6200    9.5850 Cl    923  CCL923     -0.0870
   4754 CL          7.9590    9.8890    7.0950 Cl    923  CCL923     -0.0870
   4755 CL          8.5200   10.9540    9.7670 Cl    923  CCL923     -0.0870
   4756 HX          6.4880   10.6820    8.7330 H     923  CCL923      0.0806
@<TRIPOS>BOND
     1  2136  2132    1
     2  2795  2792    1
     3  2133  2132    1
     4  2135  2132    1
     5  2132  2134    1
     6   790   787    1
     7  2470  2467    1
     8  2796  2792    1
     9  2792  2794    1
    10  2792  2793    1
    11   791   787    1
    12  2468  2467    1
    13  4279  4277    1
    14  2469  2467    1
    15   787   788    1
    16   787   789    1
    17  2467  2471    1
    18   361   357    1
    19  1625  1622    1
    20  4281  4277    1
    21  4277  4278    1
    22  4277  4280    1
    23   289   287    1
    24   990   987    1
    25   883   882    1
    26   988   987    1
    27   357   360    1
    28   357   359    1
    29   357   358    1
    30  3614  3612    1
    31  3754  3752    1
    32  2365  2362    1
    33  3970  3967    1
    34  3050  3047    1
    35  1622  1623    1
    36  1622  1624    1
    37  1622  1626    1
    38   987   989    1
    39   987   991    1
    40   840   837    1
    41   816   812    1
    42  4368  4367    1
    43   886   882    1
    44  4495  4492    1
    45  4668  4667    1
    46   287   288    1
    47   287   291    1
    48   287   290    1
    49   354   352    1
    50   882   885    1
    51   882   884    1
    52  3966  3962    1
    53  4184  4182    1
    54  3613  3612    1
    55  3756  3752    1
    56  4496  4492    1
    57   353   352    1
    58  3612  3616    1
    59  3612  3615    1
    60  3752  3755    1
    61  3752  3753    1
    62  4601  4597    1
    63  3763  3762    1
    64  3969  3967    1
    65   841   837    1
    66  4183  4182    1
    67  4598  4597    1
    68  3048  3047    1
    69  3198  3197    1
    70  3199  3197    1
    71  3967  3971    1
    72  3967  3968    1
    73  3047  3049    1
    74  3047  3051    1
    75  4185  4182    1
    76  1313  1312    1
    77  2362  2366    1
    78  2362  2364    1
    79  2362  2363    1
    80  2951  2947    1
    81  4492  4494    1
    82  4492  4493    1
    83   812   814    1
    84   812   813    1
    85   812   815    1
    86  4370  4367    1
    87  4182  4186    1
    88   837   838    1
    89   837   839    1
    90  4634  4632    1
    91  4669  4667    1
    92  3962  3965    1
    93  3962  3963    1
    94  3962  3964    1
    95   352   356    1
    96   352   355    1
    97  4597  4600    1
    98  4597  4599    1
    99  1868  1867    1
   100  2950  2947    1
   101  4671  4667    1
   102  4667  4670    1
   103  4367  4371    1
   104  4367  4369    1
   105  4550  4547    1
   106  2389  2387    1
   107  2948  2947    1
   108  3197  3200    1
   109  3197  3201    1
   110  1316  1312    1
   111  2947  2949    1
   112   981   977    1
   113  2148  2147    1
   114  1296  1292    1
   115  4551  4547    1
   116  3991  3987    1
   117  4220  4217    1
   118  1312  1315    1
   119  1312  1314    1
   120   600   597    1
   121  1871  1867    1
   122   980   977    1
   123  2391  2387    1
   124  3762  3764    1
   125  3762  3766    1
   126  3762  3765    1
   127  1069  1067    1
   128   979   977    1
   129  1380  1377    1
   130   977   978    1
   131  4636  4632    1
   132  3826  3822    1
   133  4547  4548    1
   134  4547  4549    1
   135  4029  4027    1
   136  1867  1870    1
   137  1867  1869    1
   138  3990  3987    1
   139  4632  4635    1
   140  4632  4633    1
   141  3987  3989    1
   142  3987  3988    1
   143  2387  2388    1
   144  2387  2390    1
   145  4219  4217    1
   146  1292  1293    1
   147  1292  1294    1
   148  1292  1295    1
   149  3655  3652    1
   150   603   602    1
   151  1378  1377    1
   152  1070  1067    1
   153  3823  3822    1
   154  3454  3452    1
   155   599   597    1
   156  2575  2572    1
   157  1379  1377    1
   158  1098  1097    1
   159  1445  1442    1
   160  1444  1442    1
   161  3576  3572    1
   162  4217  4221    1
   163  4217  4218    1
   164  1377  1381    1
   165   597   598    1
   166   597   601    1
   167  3736  3732    1
   168  3822  3824    1
   169  3822  3825    1
   170  2296  2292    1
   171  2147  2151    1
   172  2147  2149    1
   173  2147  2150    1
   174  4086  4082    1
   175   604   602    1
   176   808   807    1
   177  3654  3652    1
   178  1067  1071    1
   179  1067  1068    1
   180  2573  2572    1
   181   708   707    1
   182  1816  1812    1
   183  1920  1917    1
   184  4084  4082    1
   185   955   952    1
   186  1814  1812    1
   187  3735  3732    1
   188  2293  2292    1
   189  1538  1537    1
   190  4560  4557    1
   191  3575  3572    1
   192  2723  2722    1
   193   956   952    1
   194  4085  4082    1
   195  3623  3622    1
   196  1756  1752    1
   197  1753  1752    1
   198   275   272    1
   199  3456  3452    1
   200  4082  4083    1
   201  3652  3656    1
   202  3652  3653    1
   203  3733  3732    1
   204  1668  1667    1
   205  3732  3734    1
   206  3572  3573    1
   207  3572  3574    1
   208  1442  1446    1
   209  1442  1443    1
   210   602   606    1
   211   602   605    1
   212  4027  4031    1
   213  4027  4030    1
   214  4027  4028    1
   215  2292  2295    1
   216  2292  2294    1
   217  3452  3455    1
   218  3452  3453    1
   219  2572  2576    1
   220  2572  2574    1
   221   868   867    1
   222  1812  1813    1
   223  1812  1815    1
   224   631   627    1
   225   810   807    1
   226   683   682    1
   227  1670  1667    1
   228  4481  4477    1
   229  1540  1537    1
   230  2971  2967    1
   231   809   807    1
   232  4558  4557    1
   233   807   811    1
   234  2649  2647    1
   235   952   953    1
   236   952   954    1
   237   459   457    1
   238  3843  3842    1
   239  2919  2917    1
   240  1671  1667    1
   241   249   247    1
   242  1752  1754    1
   243  1752  1755    1
   244   251   247    1
   245  1539  1537    1
   246  2069  2067    1
   247  2713  2712    1
   248  2716  2712    1
   249   710   707    1
   250  1537  1541    1
   251  2235  2232    1
   252  3103  3102    1
   253  4557  4561    1
   254  4557  4559    1
   255   250   247    1
   256  1097  1101    1
   257  1097  1099    1
   258  1097  1100    1
   259  4455  4452    1
   260   707   709    1
   261   707   711    1
   262  3626  3622    1
   263  1667  1669    1
   264  3441  3437    1
   265   685   682    1
   266  2310  2307    1
   267  1919  1917    1
   268  4154  4152    1
   269  1917  1921    1
   270  1917  1918    1
   271   686   682    1
   272  3844  3842    1
   273  3438  3437    1
   274   247   248    1
   275  3874  3872    1
   276  2233  2232    1
   277  3622  3625    1
   278  3622  3624    1
   279   627   630    1
   280   627   628    1
   281   627   629    1
   282  2234  2232    1
   283  1826  1822    1
   284   220   217    1
   285   682   684    1
   286  1683  1682    1
   287   870   867    1
   288  3059  3057    1
   289  2722  2726    1
   290  2722  2725    1
   291  2722  2724    1
   292  2970  2967    1
   293  2967  2968    1
   294  2967  2969    1
   295  2712  2715    1
   296  2712  2714    1
   297  4477  4480    1
   298  4477  4479    1
   299  4477  4478    1
   300  3060  3057    1
   301  2232  2236    1
   302   272   276    1
   303   272   273    1
   304   272   274    1
   305  2920  2917    1
   306  2264  2262    1
   307   867   869    1
   308   867   871    1
   309  2181  2177    1
   310  4458  4457    1
   311  4155  4152    1
   312  2840  2837    1
   313  3842  3845    1
   314  3842  3846    1
   315  2070  2067    1
   316  2180  2177    1
   317  3437  3439    1
   318  3437  3440    1
   319  2838  2837    1
   320  2917  2921    1
   321  2917  2918    1
   322   460   457    1
   323  1988  1987    1
   324  2696  2692    1
   325   880   877    1
   326  4460  4457    1
   327  3311  3307    1
   328   759   757    1
   329   760   757    1
   330  3094  3092    1
   331  3154  3152    1
   332  1685  1682    1
   333   457   461    1
   334   457   458    1
   335  2067  2068    1
   336  2067  2071    1
   337  4235  4232    1
   338  3883  3882    1
   339  2647  2651    1
   340  2647  2650    1
   341  2647  2648    1
   342  4152  4153    1
   343  4152  4156    1
   344   746   742    1
   345  3102  3104    1
   346  3102  3106    1
   347  3102  3105    1
   348  4454  4452    1
   349   939   937    1
   350  4452  4453    1
   351  4452  4456    1
   352  1822  1824    1
   353  1822  1825    1
   354  1822  1823    1
   355  3344  3342    1
   356  1990  1987    1
   357  3640  3637    1
   358   969   967    1
   359  3057  3061    1
   360  3057  3058    1
   361  2177  2178    1
   362  2177  2179    1
   363  2309  2307    1
   364  2779  2777    1
   365  2518  2517    1
   366   221   217    1
   367  1989  1987    1
   368   344   342    1
   369   743   742    1
   370  3885  3882    1
   371  3884  3882    1
   372  4128  4127    1
   373  3641  3637    1
   374  3469  3467    1
   375  3873  3872    1
   376  1682  1686    1
   377  1682  1684    1
   378  1200  1197    1
   379  3872  3876    1
   380  3872  3875    1
   381  2307  2311    1
   382  2307  2308    1
   383  2837  2841    1
   384  2837  2839    1
   385  1987  1991    1
   386   217   219    1
   387   217   218    1
   388  4457  4461    1
   389  4457  4459    1
   390  4236  4232    1
   391  2941  2937    1
   392  2199  2197    1
   393  3470  3467    1
   394  2939  2937    1
   395  4161  4157    1
   396  2200  2197    1
   397   757   758    1
   398   757   761    1
   399   744   742    1
   400  3307  3308    1
   401  3307  3310    1
   402  3307  3309    1
   403  2692  2694    1
   404  2692  2695    1
   405  2692  2693    1
   406  3882  3886    1
   407   742   745    1
   408  2778  2777    1
   409  4334  4332    1
   410  3999  3997    1
   411  2473  2472    1
   412   940   937    1
   413  2262  2266    1
   414  2262  2265    1
   415  2262  2263    1
   416  3637  3638    1
   417  3637  3639    1
   418  4232  4233    1
   419  4232  4234    1
   420  2739  2737    1
   421   346   342    1
   422   878   877    1
   423  1726  1722    1
   424   636   632    1
   425  4255  4252    1
   426  1114  1112    1
   427  2937  2940    1
   428  2937  2938    1
   429   877   881    1
   430   877   879    1
   431  3541  3537    1
   432  2954  2952    1
   433  4158  4157    1
   434  1113  1112    1
   435  3092  3093    1
   436  3092  3096    1
   437  3092  3095    1
   438   349   347    1
   439  3539  3537    1
   440  2777  2780    1
   441  2777  2781    1
   442  4644  4642    1
   443  3152  3153    1
   444  3152  3156    1
   445  3152  3155    1
   446   388   387    1
   447   342   343    1
   448   342   345    1
   449  1115  1112    1
   450   937   941    1
   451   937   938    1
   452  3680  3677    1
   453  3467  3471    1
   454  3467  3468    1
   455  4000  3997    1
   456  4309  4307    1
   457   350   347    1
   458  4157  4160    1
   459  4157  4159    1
   460  2285  2282    1
   461  4179  4177    1
   462  2197  2201    1
   463  2197  2198    1
   464  2520  2517    1
   465   967   971    1
   466   967   968    1
   467   967   970    1
   468  1723  1722    1
   469  3342  3345    1
   470  3342  3346    1
   471  3342  3343    1
   472  2517  2519    1
   473  2517  2521    1
   474  2933  2932    1
   475  1300  1297    1
   476  3240  3237    1
   477  1725  1722    1
   478  4130  4127    1
   479  1112  1116    1
   480  4178  4177    1
   481  4127  4131    1
   482  4127  4129    1
   483   634   632    1
   484  1722  1724    1
   485  3540  3537    1
   486  3681  3677    1
   487  3537  3538    1
   488  3997  4001    1
   489  3997  3998    1
   490  4181  4177    1
   491  1406  1402    1
   492  1197  1201    1
   493  1197  1198    1
   494  1197  1199    1
   495  4336  4332    1
   496   632   633    1
   497   632   635    1
   498  4253  4252    1
   499  2475  2472    1
   500  4408  4407    1
   501  3804  3802    1
   502  3396  3392    1
   503  4248  4247    1
   504  3946  3942    1
   505  4332  4335    1
   506  4332  4333    1
   507  4754  4752    1
   508   436   432    1
   509  1403  1402    1
   510  4177  4180    1
   511  3479  3477    1
   512  4250  4247    1
   513   347   351    1
   514   347   348    1
   515  4256  4252    1
   516  3238  3237    1
   517  2955  2952    1
   518  4252  4254    1
   519  4240  4237    1
   520  2472  2476    1
   521  2472  2474    1
   522   715   712    1
   523  3677  3679    1
   524  3677  3678    1
   525  2375  2372    1
   526  3435  3432    1
   527  3731  3727    1
   528  4409  4407    1
   529  4645  4642    1
   530  3863  3862    1
   531  3945  3942    1
   532   386   382    1
   533  3145  3142    1
   534  3584  3582    1
   535   385   382    1
   536  3243  3242    1
   537  2952  2956    1
   538  2952  2953    1
   539  3168  3167    1
   540  4229  4227    1
   541  2737  2741    1
   542  2737  2738    1
   543  2737  2740    1
   544   387   390    1
   545   387   389    1
   546   387   391    1
   547  1405  1402    1
   548  1040  1037    1
   549   965   962    1
   550  1402  1404    1
   551  2219  2217    1
   552  2218  2217    1
   553  4238  4237    1
   554  4642  4643    1
   555  4642  4646    1
   556  4241  4237    1
   557  3004  3002    1
   558  4310  4307    1
   559  1020  1017    1
   560  3237  3241    1
   561  3237  3239    1
   562  4118  4117    1
   563  1394  1392    1
   564  3728  3727    1
   565  2655  2652    1
   566  4307  4311    1
   567  4307  4308    1
   568  3942  3944    1
   569  3942  3943    1
   570  1873  1872    1
   571  2286  2282    1
   572  2054  2052    1
   573  2282  2284    1
   574  2282  2283    1
   575  3730  3727    1
   576  4247  4251    1
   577  4247  4249    1
   578  3228  3227    1
   579  3803  3802    1
   580  3335  3332    1
   581  3392  3393    1
   582  3392  3395    1
   583  3392  3394    1
   584   435   432    1
   585  3805  3802    1
   586  2055  2052    1
   587   432   434    1
   588   432   433    1
   589  4237  4239    1
   590  3727  3729    1
   591  3585  3582    1
   592  1174  1172    1
   593  4407  4411    1
   594  4407  4410    1
   595  3802  3806    1
   596  1297  1301    1
   597  1297  1299    1
   598  1297  1298    1
   599  2935  2932    1
   600   382   383    1
   601   382   384    1
   602  2932  2936    1
   603  2932  2934    1
   604  3244  3242    1
   605  1018  1017    1
   606  3336  3332    1
   607   624   622    1
   608  4231  4227    1
   609  1876  1872    1
   610  3480  3477    1
   611  4121  4117    1
   612  2373  2372    1
   613  2221  2217    1
   614  2217  2220    1
   615   284   282    1
   616  4315  4312    1
   617   966   962    1
   618  1693  1692    1
   619  4438  4437    1
   620  3003  3002    1
   621  4756  4752    1
   622  3477  3478    1
   623  3477  3481    1
   624  3582  3583    1
   625  3582  3586    1
   626  4752  4753    1
   627  4752  4755    1
   628  3685  3682    1
   629  3242  3246    1
   630  3242  3245    1
   631  3476  3472    1
   632  2052  2053    1
   633  2052  2056    1
   634  2372  2374    1
   635  2372  2376    1
   636  3864  3862    1
   637  4227  4228    1
   638  4227  4230    1
   639  3332  3334    1
   640  3332  3333    1
   641  1046  1042    1
   642  3790  3787    1
   643   785   782    1
   644   962   964    1
   645   962   963    1
   646  2656  2652    1
   647  1017  1021    1
   648  1017  1019    1
   649  4117  4119    1
   650  4117  4120    1
   651  3791  3787    1
   652  3683  3682    1
   653  1043  1042    1
   654  2015  2012    1
   655  3002  3006    1
   656  3002  3005    1
   657  3419  3417    1
   658  3142  3144    1
   659  3142  3146    1
   660  3142  3143    1
   661  1872  1874    1
   662  1872  1875    1
   663  2146  2142    1
   664  1041  1037    1
   665   712   716    1
   666   712   713    1
   667   712   714    1
   668  3862  3866    1
   669  3862  3865    1
   670  3703  3702    1
   671  2428  2427    1
   672  2154  2152    1
   673  1729  1727    1
   674  1468  1467    1
   675   490   487    1
   676  3171  3167    1
   677  3432  3436    1
   678  3432  3434    1
   679  3432  3433    1
   680  1037  1038    1
   681  1037  1039    1
   682  1392  1395    1
   683  1392  1393    1
   684  1392  1396    1
   685  2925  2922    1
   686   283   282    1
   687  2652  2654    1
   688  2652  2653    1
   689  2624  2622    1
   690  3167  3170    1
   691  3167  3169    1
   692  2571  2567    1
   693  3230  3227    1
   694  3474  3472    1
   695  3819  3817    1
   696  1175  1172    1
   697  4439  4437    1
   698  1374  1372    1
   699  1390  1387    1
   700  3925  3922    1
   701  3820  3817    1
   702   720   717    1
   703  3069  3067    1
   704  1172  1173    1
   705  1172  1176    1
   706  3227  3229    1
   707  3227  3231    1
   708  1645  1642    1
   709   874   872    1
   710  4444  4442    1
   711  3704  3702    1
   712  2350  2347    1
   713  2460  2457    1
   714  3472  3473    1
   715  3472  3475    1
   716  1428  1427    1
   717  1042  1044    1
   718  1042  1045    1
   719  3787  3789    1
   720  3787  3788    1
   721  1431  1427    1
   722   282   286    1
   723   282   285    1
   724  1728  1727    1
   725  3682  3684    1
   726  3682  3686    1
   727  1373  1372    1
   728  4443  4442    1
   729  1504  1502    1
   730  4437  4440    1
   731  4437  4441    1
   732  1413  1412    1
   733   623   622    1
   734  2142  2145    1
   735  2142  2143    1
   736  2142  2144    1
   737   783   782    1
   738   491   487    1
   739   622   626    1
   740   622   625    1
   741  1695  1692    1
   742  2014  2012    1
   743  1692  1694    1
   744  1692  1696    1
   745  3829  3827    1
   746  2153  2152    1
   747  2458  2457    1
   748  1727  1730    1
   749  1727  1731    1
   750   524   522    1
   751  3420  3417    1
   752  3702  3705    1
   753  3702  3706    1
   754  1388  1387    1
   755  4312  4316    1
   756  4312  4314    1
   757  4312  4313    1
   758  3915  3912    1
   759  1429  1427    1
   760  2567  2569    1
   761  2567  2568    1
   762  2567  2570    1
   763  1275  1272    1
   764  1427  1430    1
   765   526   522    1
   766  3817  3818    1
   767  3817  3821    1
   768  2012  2016    1
   769  2012  2013    1
   770   548   547    1
   771  3064  3062    1
   772   782   786    1
   773   782   784    1
   774  3550  3547    1
   775  2349  2347    1
   776   487   489    1
   777   487   488    1
   778  1372  1376    1
   779  1372  1375    1
   780  2555  2552    1
   781  2625  2622    1
   782  4261  4257    1
   783   718   717    1
   784  2152  2156    1
   785  2152  2155    1
   786  3417  3418    1
   787  3417  3421    1
   788  3219  3217    1
   789  2431  2427    1
   790  1467  1470    1
   791  1467  1471    1
   792  1467  1469    1
   793  1387  1391    1
   794  1387  1389    1
   795  1608  1607    1
   796  2622  2626    1
   797  2622  2623    1
   798  2427  2429    1
   799  2427  2430    1
   800  2457  2461    1
   801  2457  2459    1
   802  2465  2462    1
   803  4442  4446    1
   804  4442  4445    1
   805  2258  2257    1
   806   717   719    1
   807   717   721    1
   808  3549  3547    1
   809  1121  1117    1
   810  4069  4067    1
   811   493   492    1
   812  1846  1842    1
   813  1879  1877    1
   814  2347  2351    1
   815  2347  2348    1
   816  2922  2926    1
   817  2922  2923    1
   818  2922  2924    1
   819  1642  1643    1
   820  1642  1644    1
   821  1642  1646    1
   822   522   525    1
   823   522   523    1
   824  4203  4202    1
   825  3922  3926    1
   826  3922  3923    1
   827  3922  3924    1
   828   494   492    1
   829  3635  3632    1
   830   591   587    1
   831   872   876    1
   832   872   873    1
   833   872   875    1
   834  3067  3071    1
   835  3067  3068    1
   836  3067  3070    1
   837  3186  3182    1
   838  1416  1412    1
   839  3778  3777    1
   840  3063  3062    1
   841  1158  1157    1
   842  2463  2462    1
   843  2466  2462    1
   844  3065  3062    1
   845  3636  3632    1
   846  1881  1877    1
   847  2640  2637    1
   848  1412  1415    1
   849  1412  1414    1
   850  4295  4292    1
   851  3185  3182    1
   852  2759  2757    1
   853  2383  2382    1
   854  1310  1307    1
   855  1274  1272    1
   856  3062  3066    1
   857   535   532    1
   858  2462  2464    1
   859  3547  3548    1
   860  3547  3551    1
   861  1502  1505    1
   862  1502  1506    1
   863  1502  1503    1
   864  2638  2637    1
   865  4257  4260    1
   866  4257  4259    1
   867  4257  4258    1
   868  1878  1877    1
   869  1272  1273    1
   870  1272  1276    1
   871  3349  3347    1
   872  3218  3217    1
   873  1805  1802    1
   874  2435  2432    1
   875   590   587    1
   876   643   642    1
   877  2909  2907    1
   878  1877  1880    1
   879  3827  3831    1
   880  3827  3830    1
   881  3827  3828    1
   882  1806  1802    1
   883  1351  1347    1
   884   492   495    1
   885   492   496    1
   886  2553  2552    1
   887  1842  1843    1
   888  1842  1844    1
   889  1842  1845    1
   890  1117  1120    1
   891  1117  1119    1
   892  1117  1118    1
   893  3912  3914    1
   894  3912  3916    1
   895  3912  3913    1
   896   587   589    1
   897   587   588    1
   898   303   302    1
   899  3217  3221    1
   900  3217  3220    1
   901  3182  3184    1
   902  3182  3183    1
   903   547   549    1
   904   547   550    1
   905   547   551    1
   906  3632  3634    1
   907  3632  3633    1
   908  1350  1347    1
   909  2911  2907    1
   910  2552  2556    1
   911  2552  2554    1
   912  3385  3382    1
   913  2448  2447    1
   914  2433  2432    1
   915   243   242    1
   916  1607  1609    1
   917  1607  1610    1
   918  1607  1611    1
   919  1590  1587    1
   920   235   232    1
   921  1311  1307    1
   922  2434  2432    1
   923  4067  4068    1
   924  4067  4071    1
   925  4067  4070    1
   926  1591  1587    1
   927   204   202    1
   928   646   642    1
   929  2637  2641    1
   930  2637  2639    1
   931  3768  3767    1
   932  2760  2757    1
   933  4294  4292    1
   934  1802  1804    1
   935  1802  1803    1
   936  4733  4732    1
   937  2257  2261    1
   938  2257  2259    1
   939  2257  2260    1
   940  3304  3302    1
   941  4293  4292    1
   942  2432  2436    1
   943  1347  1348    1
   944  1347  1349    1
   945  4292  4296    1
   946  2664  2662    1
   947  2907  2908    1
   948  2907  2910    1
   949  2398  2397    1
   950  3650  3647    1
   951  2757  2761    1
   952  2757  2758    1
   953  1307  1308    1
   954  1307  1309    1
   955  4202  4206    1
   956  4202  4204    1
   957  4202  4205    1
   958  1159  1157    1
   959  3779  3777    1
   960  1157  1161    1
   961  1157  1160    1
   962  3384  3382    1
   963  3348  3347    1
   964  3777  3780    1
   965  3777  3781    1
   966  3620  3617    1
   967  4151  4147    1
   968  1588  1587    1
   969   642   645    1
   970   642   644    1
   971   595   592    1
   972  1713  1712    1
   973  1575  1572    1
   974  1914  1912    1
   975  1596  1592    1
   976  4628  4627    1
   977  3347  3350    1
   978  3347  3351    1
   979  1587  1589    1
   980  3383  3382    1
   981   198   197    1
   982   700   697    1
   983   306   302    1
   984  2798  2797    1
   985  2382  2386    1
   986  2382  2384    1
   987  2382  2385    1
   988   532   533    1
   989   532   536    1
   990   532   534    1
   991  3770  3767    1
   992  3382  3386    1
   993  3590  3587    1
   994  1793  1792    1
   995  1716  1712    1
   996   910   907    1
   997   498   497    1
   998  2808  2807    1
   999   205   202    1
  1000   302   304    1
  1001   302   305    1
  1002  1371  1367    1
  1003  3769  3767    1
  1004  1594  1592    1
  1005  2254  2252    1
  1006   200   197    1
  1007  3039  3037    1
  1008  2124  2122    1
  1009  3767  3771    1
  1010  2584  2582    1
  1011  1435  1432    1
  1012  2401  2397    1
  1013  2830  2827    1
  1014  3416  3412    1
  1015  4471  4467    1
  1016  2818  2817    1
  1017  1593  1592    1
  1018   202   206    1
  1019   202   203    1
  1020  3556  3552    1
  1021  3415  3412    1
  1022  2126  2122    1
  1023  3619  3617    1
  1024  1592  1595    1
  1025  3555  3552    1
  1026   242   246    1
  1027   242   245    1
  1028   242   244    1
  1029  4147  4150    1
  1030  4147  4148    1
  1031  4147  4149    1
  1032  3404  3402    1
  1033  2447  2451    1
  1034  2447  2449    1
  1035  2447  2450    1
  1036  1712  1715    1
  1037  1712  1714    1
  1038  1665  1662    1
  1039   232   236    1
  1040   232   234    1
  1041   232   233    1
  1042  3305  3302    1
  1043  2397  2399    1
  1044  2397  2400    1
  1045  1913  1912    1
  1046  3553  3552    1
  1047  2514  2512    1
  1048  4732  4735    1
  1049  4732  4734    1
  1050  4732  4736    1
  1051  1184  1182    1
  1052  1186  1182    1
  1053  3302  3306    1
  1054  3302  3303    1
  1055  3464  3462    1
  1056  4406  4402    1
  1057  3466  3462    1
  1058  3617  3621    1
  1059  3617  3618    1
  1060  4619  4617    1
  1061  3465  3462    1
  1062   197   201    1
  1063   197   199    1
  1064  3651  3647    1
  1065  2663  2662    1
  1066  1912  1915    1
  1067  1912  1916    1
  1068   911   907    1
  1069  2801  2797    1
  1070  4469  4467    1
  1071  2662  2665    1
  1072  2662  2666    1
  1073  2034  2032    1
  1074  1664  1662    1
  1075  4631  4627    1
  1076  3552  3554    1
  1077  2730  2727    1
  1078  1796  1792    1
  1079  3589  3587    1
  1080  2729  2727    1
  1081  2790  2787    1
  1082  3647  3649    1
  1083  3647  3648    1
  1084  1185  1182    1
  1085  4710  4707    1
  1086  3041  3037    1
  1087  1303  1302    1
  1088   592   594    1
  1089   592   596    1
  1090   592   593    1
  1091   314   312    1
  1092  3412  3414    1
  1093  3412  3413    1
  1094  1367  1369    1
  1095  1367  1370    1
  1096  1367  1368    1
  1097  1436  1432    1
  1098  4620  4617    1
  1099  4627  4629    1
  1100  4627  4630    1
  1101  2122  2125    1
  1102  2122  2123    1
  1103   907   909    1
  1104   907   908    1
  1105  2211  2207    1
  1106  3462  3463    1
  1107  1666  1662    1
  1108  4467  4470    1
  1109  4467  4468    1
  1110  2797  2799    1
  1111  2797  2800    1
  1112  1182  1183    1
  1113  4405  4402    1
  1114  1792  1794    1
  1115  1792  1795    1
  1116  1572  1576    1
  1117  1572  1573    1
  1118  1572  1574    1
  1119  2253  2252    1
  1120  3587  3588    1
  1121  3587  3591    1
  1122  3526  3522    1
  1123  3815  3812    1
  1124  3037  3038    1
  1125  3037  3040    1
  1126   697   701    1
  1127   697   698    1
  1128   697   699    1
  1129  2807  2811    1
  1130  2807  2810    1
  1131  2807  2809    1
  1132  1662  1663    1
  1133  2731  2727    1
  1134  2454  2452    1
  1135  4402  4404    1
  1136  4402  4403    1
  1137  1432  1433    1
  1138  1432  1434    1
  1139   865   862    1
  1140  4660  4657    1
  1141  2585  2582    1
  1142  2586  2582    1
  1143   497   500    1
  1144   497   501    1
  1145   497   499    1
  1146  2582  2583    1
  1147  2209  2207    1
  1148  2252  2256    1
  1149  2252  2255    1
  1150   578   577    1
  1151  2727  2728    1
  1152  3406  3402    1
  1153  2827  2828    1
  1154  2827  2831    1
  1155  2827  2829    1
  1156  4617  4621    1
  1157  4617  4618    1
  1158  2488  2487    1
  1159  2817  2819    1
  1160  2817  2820    1
  1161  2817  2821    1
  1162  3402  3405    1
  1163  3402  3403    1
  1164   764   762    1
  1165  3524  3522    1
  1166  3564  3562    1
  1167  1981  1977    1
  1168  2207  2208    1
  1169  2207  2210    1
  1170  3814  3812    1
  1171  3522  3525    1
  1172  3522  3523    1
  1173  1511  1507    1
  1174  2045  2042    1
  1175  4711  4707    1
  1176  2516  2512    1
  1177  1304  1302    1
  1178  2512  2515    1
  1179  2512  2513    1
  1180  1104  1102    1
  1181  2456  2452    1
  1182  4708  4707    1
  1183  3566  3562    1
  1184  2791  2787    1
  1185  4707  4709    1
  1186  1510  1507    1
  1187  1828  1827    1
  1188  3215  3212    1
  1189  1619  1617    1
  1190  1979  1977    1
  1191  1306  1302    1
  1192  1302  1305    1
  1193  4244  4242    1
  1194   674   672    1
  1195   798   797    1
  1196  1708  1707    1
  1197   313   312    1
  1198  2976  2972    1
  1199  4659  4657    1
  1200  3188  3187    1
  1201  2787  2788    1
  1202  2787  2789    1
  1203  4654  4652    1
  1204   316   312    1
  1205  2804  2802    1
  1206   312   315    1
  1207  3812  3816    1
  1208  3812  3813    1
  1209  2032  2036    1
  1210  2032  2035    1
  1211  2032  2033    1
  1212  1933  1932    1
  1213   799   797    1
  1214  2974  2972    1
  1215  1363  1362    1
  1216  2452  2455    1
  1217  2452  2453    1
  1218  3745  3742    1
  1219  1977  1980    1
  1220  1977  1978    1
  1221  1898  1897    1
  1222  1448  1447    1
  1223  2610  2607    1
  1224  4657  4661    1
  1225  4657  4658    1
  1226  3562  3565    1
  1227  3562  3563    1
  1228  3744  3742    1
  1229  1507  1509    1
  1230  1507  1508    1
  1231  1900  1897    1
  1232  1004  1002    1
  1233    52    49    1
  1234  4246  4242    1
  1235  4583  4582    1
  1236  1936  1932    1
  1237  3668  3667    1
  1238  1103  1102    1
  1239  1831  1827    1
  1240  1005  1002    1
  1241  1848  1847    1
  1242  4360  4357    1
  1243    51    49    1
  1244   862   864    1
  1245   862   866    1
  1246   862   863    1
  1247  3030  3027    1
  1248  4245  4242    1
  1249  4586  4582    1
  1250  2046  2042    1
  1251  2972  2973    1
  1252  2972  2975    1
  1253  4585  4582    1
  1254    50    49    1
  1255  1364  1362    1
  1256   577   580    1
  1257   577   581    1
  1258   577   579    1
  1259   898   897    1
  1260  4242  4243    1
  1261  1102  1106    1
  1262  1102  1105    1
  1263  3714  3712    1
  1264  1654  1652    1
  1265    49    43    1
  1266  1598  1597    1
  1267  2487  2489    1
  1268  2487  2490    1
  1269  2487  2491    1
  1270  3216  3212    1
  1271  1827  1830    1
  1272  1827  1829    1
  1273   797   801    1
  1274   797   800    1
  1275  1709  1707    1
  1276  2042  2044    1
  1277  2042  2043    1
  1278   920   917    1
  1279   762   766    1
  1280   762   765    1
  1281   762   763    1
  1282  1604  1602    1
  1283  1618  1617    1
  1284  1932  1935    1
  1285  1932  1934    1
  1286   673   672    1
  1287  1897  1899    1
  1288  1897  1901    1
  1289  3742  3743    1
  1290  3742  3746    1
  1291  4582  4584    1
  1292  3909  3907    1
  1293  1603  1602    1
  1294  1707  1710    1
  1295  1707  1711    1
  1296  1076  1072    1
  1297  3031  3027    1
  1298  2609  2607    1
  1299  3919  3917    1
  1300  4451  4447    1
  1301  3212  3213    1
  1302  3212  3214    1
  1303  1617  1621    1
  1304  1617  1620    1
  1305  1002  1006    1
  1306  1002  1003    1
  1307   900   897    1
  1308   672   676    1
  1309   672   675    1
  1310  1744  1742    1
  1311  1362  1366    1
  1312  1362  1365    1
  1313  2836  2832    1
  1314  2050  2047    1
  1315  3118  3117    1
  1316  3853  3852    1
  1317  2802  2806    1
  1318  2802  2805    1
  1319  2802  2803    1
  1320   142   139    1
  1321  2835  2832    1
  1322  3027  3028    1
  1323  3027  3029    1
  1324  3861  3857    1
  1325  3187  3191    1
  1326  3187  3190    1
  1327  3187  3189    1
  1328  2607  2611    1
  1329  2607  2608    1
  1330  3665  3662    1
  1331  4652  4656    1
  1332  4652  4655    1
  1333  4652  4653    1
  1334  3858  3857    1
  1335  3664  3662    1
  1336  4608  4607    1
  1337  2869  2867    1
  1338  1449  1447    1
  1339  1699  1697    1
  1340  3908  3907    1
  1341  4449  4447    1
  1342  1447  1451    1
  1343  1447  1450    1
  1344  1550  1547    1
  1345  1850  1847    1
  1346  1954  1952    1
  1347  1700  1697    1
  1348  3581  3577    1
  1349  3424  3422    1
  1350  4088  4087    1
  1351  4434  4432    1
  1352  2843  2842    1
  1353   897   901    1
  1354   897   899    1
  1355  3667  3671    1
  1356  3667  3670    1
  1357  3667  3669    1
  1358  1602  1606    1
  1359  1602  1605    1
  1360  1847  1851    1
  1361  1847  1849    1
  1362  4447  4448    1
  1363  4447  4450    1
  1364   241   237    1
  1365  1743  1742    1
  1366  3426  3422    1
  1367   140   139    1
  1368  4214  4212    1
  1369  3910  3907    1
  1370  2832  2833    1
  1371  2832  2834    1
  1372   141   139    1
  1373  1528  1527    1
  1374  1072  1073    1
  1375  1072  1075    1
  1376  1072  1074    1
  1377  3374  3372    1
  1378   919   917    1
  1379    46    45    1
  1380    88    87    1
  1381  3907  3911    1
  1382   505   502    1
  1383  4357  4359    1
  1384  4357  4361    1
  1385  4357  4358    1
  1386  1331  1327    1
  1387  3579  3577    1
  1388  3840  3837    1
  1389  1601  1597    1
  1390   139   137    1
  1391  1652  1655    1
  1392  1652  1653    1
  1393  1652  1656    1
  1394  3666  3662    1
  1395   917   918    1
  1396   917   921    1
  1397  3857  3860    1
  1398  3857  3859    1
  1399  2856  2852    1
  1400  3580  3577    1
  1401   456   452    1
  1402  1597  1599    1
  1403  1597  1600    1
  1404  1330  1327    1
  1405    43    44    1
  1406    43    45    1
  1407    43    40    1
  1408    89    87    1
  1409  3662  3663    1
  1410  3716  3712    1
  1411  3712  3713    1
  1412  3712  3715    1
  1413  4338  4337    1
  1414  1742  1745    1
  1415  1742  1746    1
  1416  2868  2867    1
  1417   240   237    1
  1418  1548  1547    1
  1419    47    45    1
  1420  2898  2897    1
  1421  2049  2047    1
  1422  3577  3578    1
  1423  4339  4337    1
  1424    90    87    1
  1425  1529  1527    1
  1426    26    23    1
  1427  1530  1527    1
  1428   453   452    1
  1429  1697  1701    1
  1430  1697  1698    1
  1431    42    40    1
  1432    87    85    1
  1433  3560  3557    1
  1434  2047  2048    1
  1435  2047  2051    1
  1436  3422  3425    1
  1437  3422  3423    1
  1438  4341  4337    1
  1439    45    48    1
  1440    41    40    1
  1441   237   239    1
  1442   237   238    1
  1443  1486  1482    1
  1444   144   143    1
  1445    29    27    1
  1446  2240  2237    1
  1447  4436  4432    1
  1448  3917  3921    1
  1449  3917  3920    1
  1450  3917  3918    1
  1451   506   502    1
  1452  2867  2871    1
  1453  2867  2870    1
  1454  1527  1531    1
  1455  1327  1329    1
  1456  1327  1328    1
  1457  3852  3855    1
  1458  3852  3856    1
  1459  3852  3854    1
  1460  2544  2542    1
  1461  4091  4087    1
  1462  2241  2237    1
  1463  3495  3492    1
  1464  3117  3120    1
  1465  3117  3121    1
  1466  3117  3119    1
  1467  2853  2852    1
  1468    40    34    1
  1469  3373  3372    1
  1470  1547  1551    1
  1471  1547  1549    1
  1472   679   677    1
  1473  4337  4340    1
  1474  4432  4433    1
  1475  4432  4435    1
  1476  1579  1577    1
  1477  3371  3367    1
  1478   452   455    1
  1479   452   454    1
  1480  4087  4089    1
  1481  4087  4090    1
  1482  2852  2855    1
  1483  2852  2854    1
  1484  4611  4607    1
  1485  4607  4609    1
  1486  4607  4610    1
  1487  2776  2772    1
  1488    25    23    1
  1489  2330  2327    1
  1490  3993  3992    1
  1491    80    77    1
  1492    82    81    1
  1493  3203  3202    1
  1494   502   503    1
  1495   502   504    1
  1496  3559  3557    1
  1497  2290  2287    1
  1498  3839  3837    1
  1499  3841  3837    1
  1500   681   677    1
  1501   946   942    1
  1502  1952  1953    1
  1503  1952  1956    1
  1504  1952  1955    1
  1505    79    77    1
  1506  3837  3838    1
  1507  2774  2772    1
  1508  2842  2846    1
  1509  2842  2844    1
  1510  2842  2845    1
  1511  4354  4352    1
  1512  1248  1247    1
  1513    23    24    1
  1514    23    21    1
  1515   137   143    1
  1516   137   138    1
  1517   137   134    1
  1518  4374  4372    1
  1519  3372  3376    1
  1520  3372  3375    1
  1521  2289  2287    1
  1522   143   146    1
  1523   143   145    1
  1524  3561  3557    1
  1525  3253  3252    1
  1526  1948  1947    1
  1527   178   177    1
  1528  2237  2239    1
  1529  2237  2238    1
  1530  4212  4215    1
  1531  4212  4213    1
  1532  4212  4216    1
  1533  3205  3202    1
  1534  3249  3247    1
  1535    30    27    1
  1536  3557  3558    1
  1537  2118  2117    1
  1538  2545  2542    1
  1539   148   147    2
  1540  1483  1482    1
  1541  3369  3367    1
  1542  1482  1485    1
  1543  1482  1484    1
  1544    97    96    1
  1545  3025  3022    1
  1546    27    28    1
  1547    27    21    1
  1548   169   168    1
  1549    19    18    1
  1550  2589  2587    1
  1551   129   128    1
  1552   170   168    1
  1553  1193  1192    1
  1554   171   168    1
  1555    77    78    1
  1556    77    74    1
  1557  3995  3992    1
  1558  2901  2897    1
  1559  1088  1087    1
  1560  1949  1947    1
  1561  3206  3202    1
  1562  2128  2127    1
  1563  2897  2900    1
  1564  2897  2899    1
  1565  3254  3252    1
  1566   677   678    1
  1567   677   680    1
  1568    54    53    2
  1569  2772  2773    1
  1570  2772  2775    1
  1571   268   267    1
  1572  3367  3370    1
  1573  3367  3368    1
  1574   101    98    1
  1575    85    81    1
  1576    85    86    1
  1577    85    91    1
  1578  2229  2227    1
  1579  3202  3204    1
  1580   945   942    1
  1581  3496  3492    1
  1582  2590  2587    1
  1583   168   165    1
  1584  2542  2543    1
  1585  2542  2546    1
  1586   183   181    1
  1587  2287  2288    1
  1588  2287  2291    1
  1589  3024  3022    1
  1590  3996  3992    1
  1591    81    83    1
  1592    81    75    1
  1593  1809  1807    1
  1594  4353  4352    1
  1595   942   944    1
  1596   942   943    1
  1597  3992  3994    1
  1598  4356  4352    1
  1599    83    84    1
  1600    92    91    1
  1601  4375  4372    1
  1602   136   134    1
  1603   173   172    1
  1604  2328  2327    1
  1605  3492  3493    1
  1606  3492  3494    1
  1607  2120  2117    1
  1608    21    18    1
  1609    21    22    1
  1610   180   177    1
  1611  1581  1577    1
  1612  1947  1950    1
  1613  1947  1951    1
  1614    34    35    1
  1615    34    53    1
  1616    34    33    1
  1617  4352  4355    1
  1618   134   128    1
  1619   134   135    1
  1620    96    98    1
  1621    96    94    1
  1622  1514  1512    1
  1623   177   179    1
  1624   177   175    1
  1625   426   422    1
  1626  1577  1578    1
  1627  1577  1580    1
  1628   439   437    1
  1629  2327  2331    1
  1630  2327  2329    1
  1631    38    36    1
  1632   440   437    1
  1633  2230  2227    1
  1634   438   437    1
  1635  1250  1247    1
  1636  4624  4622    1
  1637  1808  1807    1
  1638  2409  2407    1
  1639    18    20    1
  1640    18    12    1
  1641  3252  3256    1
  1642  3252  3255    1
  1643    13    12    1
  1644   128   147    1
  1645   128   127    1
  1646   147   149   am
  1647  4166  4162    1
  1648  2099  2097    1
  1649  4555  4552    1
  1650    91    94    1
  1651    91    93    1
  1652  2443  2442    1
  1653   270   267    1
  1654  4372  4373    1
  1655  4372  4376    1
  1656  4164  4162    1
  1657  2380  2377    1
  1658    53    55   am
  1659  3022  3026    1
  1660  3022  3023    1
  1661   586   582    1
  1662  4165  4162    1
  1663  1247  1251    1
  1664  1247  1249    1
  1665    98    99    1
  1666    98   100    1
  1667  4626  4622    1
  1668  2587  2591    1
  1669  2587  2588    1
  1670  2117  2121    1
  1671  2117  2119    1
  1672   794   792    1
  1673   152   151    1
  1674    94    95    1
  1675  2231  2227    1
  1676    33    36    1
  1677    33    31   am
  1678  2361  2357    1
  1679  1811  1807    1
  1680  2227  2228    1
  1681  3033  3032    1
  1682    74    75    1
  1683    74    72   am
  1684  2298  2297    1
  1685   437   441    1
  1686  2127  2130    1
  1687  2127  2129    1
  1688  2127  2131    1
  1689   181   182    1
  1690   181   175    1
  1691   181   184    1
  1692   126   125    2
  1693   162   159    1
  1694   264   262    1
  1695  3247  3248    1
  1696  3247  3251    1
  1697  3247  3250    1
  1698  1807  1810    1
  1699  1284  1282    1
  1700   266   262    1
  1701  4162  4163    1
  1702   254   252    1
  1703    37    36    1
  1704    76    75    1
  1705    57    56    1
  1706  2379  2377    1
  1707    36    39    1
  1708   132   130    1
  1709    75   102    1
  1710   172   175    1
  1711   172   174    1
  1712   172   166    1
  1713   267   271    1
  1714   267   269    1
  1715    12    31    1
  1716    12    11    1
  1717   583   582    1
  1718  2101  2097    1
  1719  3133  3132    1
  1720  4622  4623    1
  1721  4622  4625    1
  1722  1090  1087    1
  1723  1192  1195    1
  1724  1192  1196    1
  1725  1192  1194    1
  1726   422   425    1
  1727   422   423    1
  1728   422   424    1
  1729  1087  1091    1
  1730  1087  1089    1
  1731    31    32    2
  1732  2185  2182    1
  1733   175   176    1
  1734  2539  2537    1
  1735   165   166    1
  1736   165   163   am
  1737  4524  4522    1
  1738  3195  3192    1
  1739  1680  1677    1
  1740  4553  4552    1
  1741   582   585    1
  1742   582   584    1
  1743   127   125   am
  1744   127   130    1
  1745  1513  1512    1
  1746  2408  2407    1
  1747  4523  4522    1
  1748  1516  1512    1
  1749   149   151    1
  1750   149   150    1
  1751   157   155    1
  1752  4304  4302    1
  1753  3136  3132    1
  1754  2097  2100    1
  1755  2097  2098    1
  1756  2444  2442    1
  1757   151   163    1
  1758   151   153    1
  1759  1286  1282    1
  1760  1512  1515    1
  1761  4060  4057    1
  1762   125   118    1
  1763    69    68    1
  1764  1078  1077    1
  1765   262   265    1
  1766   262   263    1
  1767  1011  1007    1
  1768    55    56    1
  1769    55    58    1
  1770  2324  2322    1
  1771  2985  2982    1
  1772  4556  4552    1
  1773  4552  4554    1
  1774  2407  2410    1
  1775  2407  2411    1
  1776  2377  2381    1
  1777  2377  2378    1
  1778  2250  2247    1
  1779  3135  3132    1
  1780  1283  1282    1
  1781   689   687    1
  1782  2249  2247    1
  1783  2538  2537    1
  1784   844   842    1
  1785  1674  1672    1
  1786    10     9    2
  1787   167   166    1
  1788    56    72    1
  1789    56    62    1
  1790   618   617    1
  1791   166   185    1
  1792  2357  2359    1
  1793  2357  2360    1
  1794  2357  2358    1
  1795  4593  4592    1
  1796  4591  4587    1
  1797  2442  2446    1
  1798  2442  2445    1
  1799    67    64    1
  1800    72    73    2
  1801  1282  1285    1
  1802  2299  2297    1
  1803   130   131    1
  1804   130   133    1
  1805  1679  1677    1
  1806  4301  4297    1
  1807   691   687    1
  1808   159   161    1
  1809   159   153    1
  1810   159   160    1
  1811  4299  4297    1
  1812  4378  4377    1
  1813   163   164    2
  1814  4306  4302    1
  1815  3132  3134    1
  1816  3115  3112    1
  1817  1860  1857    1
  1818  3034  3032    1
  1819   326   322    1
  1820   793   792    1
  1821   792   795    1
  1822   792   796    1
  1823  1675  1672    1
  1824  4266  4262    1
  1825  3328  3327    1
  1826  4485  4482    1
  1827  2325  2322    1
  1828  4522  4525    1
  1829  4522  4526    1
  1830  3032  3035    1
  1831  3032  3036    1
  1832  1821  1817    1
  1833  2297  2301    1
  1834  2297  2300    1
  1835   845   842    1
  1836  2826  2822    1
  1837  1819  1817    1
  1838  4059  4057    1
  1839   930   927    1
  1840  2195  2192    1
  1841  3898  3897    1
  1842    11     9   am
  1843    11    14    1
  1844  4264  4262    1
  1845   102   103    2
  1846   102   104   am
  1847   324   322    1
  1848   253   252    1
  1849   120   118    1
  1850  2770  2767    1
  1851  2537  2540    1
  1852  2537  2541    1
  1853   153   155    1
  1854   153   154    1
  1855  1010  1007    1
  1856   252   256    1
  1857   252   255    1
  1858   155   158    1
  1859   155   156    1
  1860  1677  1678    1
  1861  1677  1681    1
  1862  4464  4462    1
  1863   211   207    1
  1864  4302  4305    1
  1865  4302  4303    1
  1866  3116  3112    1
  1867  2251  2247    1
  1868   687   690    1
  1869   687   688    1
  1870   209   207    1
  1871  4595  4592    1
  1872  3196  3192    1
  1873  4484  4482    1
  1874  2247  2248    1
  1875    17    14    1
  1876    61    58    1
  1877  1079  1077    1
  1878     9     3    1
  1879  2184  2182    1
  1880  4297  4300    1
  1881  4297  4298    1
  1882    68    62    1
  1883    68    71    1
  1884    68    70    1
  1885  3192  3193    1
  1886  3192  3194    1
  1887  2182  2186    1
  1888  2182  2183    1
  1889  1007  1008    1
  1890  1007  1009    1
  1891  3366  3362    1
  1892    58    60    1
  1893    58    59    1
  1894   105   104    1
  1895   122   121    1
  1896   118   117    1
  1897   118   119    1
  1898   931   927    1
  1899    64    65    1
  1900    64    62    1
  1901    64    66    1
  1902  1974  1972    1
  1903  4057  4061    1
  1904  4057  4058    1
  1905   555   552    1
  1906  4587  4589    1
  1907  4587  4590    1
  1908  4587  4588    1
  1909  2322  2323    1
  1910  2322  2326    1
  1911  4262  4265    1
  1912  4262  4263    1
  1913   322   323    1
  1914   322   325    1
  1915    62    63    1
  1916  1672  1676    1
  1917  1672  1673    1
  1918   842   846    1
  1919   842   843    1
  1920  3364  3362    1
  1921  4596  4592    1
  1922   104   106    1
  1923  4463  4462    1
  1924  4592  4594    1
  1925  1817  1820    1
  1926  1817  1818    1
  1927   926   922    1
  1928  1077  1081    1
  1929  1077  1080    1
  1930  3112  3113    1
  1931  3112  3114    1
  1932  3899  3897    1
  1933     2     1    1
  1934    14    15    1
  1935    14    16    1
  1936  3008  3007    1
  1937  2984  2982    1
  1938  4381  4377    1
  1939  2982  2986    1
  1940  2982  2983    1
  1941  1976  1972    1
  1942   185   186    2
  1943   185   187   am
  1944   207   210    1
  1945   207   208    1
  1946  2822  2825    1
  1947  2822  2824    1
  1948  2822  2823    1
  1949   481   477    1
  1950  4482  4483    1
  1951  4482  4486    1
  1952  4688  4687    1
  1953  4466  4462    1
  1954  3123  3122    1
  1955   927   928    1
  1956   927   929    1
  1957  2771  2767    1
  1958  3674  3672    1
  1959  2196  2192    1
  1960   621   617    1
  1961  4377  4380    1
  1962  4377  4379    1
  1963   617   619    1
  1964   617   620    1
  1965     8     5    1
  1966   394   392    1
  1967  3719  3717    1
  1968  4462  4465    1
  1969  4288  4287    1
  1970   117   121    1
  1971   117   115   am
  1972  4545  4542    1
  1973  4690  4687    1
  1974  3362  3365    1
  1975  3362  3363    1
  1976   188   187    1
  1977   556   552    1
  1978  3897  3901    1
  1979  3897  3900    1
  1980  2194  2192    1
  1981  2192  2193    1
  1982   116   115    2
  1983  1857  1861    1
  1984  1857  1859    1
  1985  1857  1858    1
  1986   121   124    1
  1987   121   123    1
  1988  3301  3297    1
  1989   115   106    1
  1990  3327  3329    1
  1991  3327  3331    1
  1992  3327  3330    1
  1993  2579  2577    1
  1994  3299  3297    1
  1995  2767  2769    1
  1996  2767  2768    1
  1997  3960  3957    1
  1998   924   922    1
  1999  1972  1975    1
  2000  1972  1973    1
  2001  1649  1647    1
  2002   922   925    1
  2003   922   923    1
  2004     6     5    1
  2005  3080  3077    1
  2006     3     1    1
  2007     3     5    1
  2008     3     4    1
  2009   187   189    1
  2010     1   195   am
  2011   552   553    1
  2012   552   554    1
  2013   106   107    1
  2014   106   108    1
  2015  4546  4542    1
  2016     5     7    1
  2017  3676  3672    1
  2018  2709  2707    1
  2019  1320  1317    1
  2020  3298  3297    1
  2021  4683  4682    1
  2022  3798  3797    1
  2023   478   477    1
  2024  1234  1232    1
  2025  2529  2527    1
  2026  2700  2697    1
  2027   477   480    1
  2028   477   479    1
  2029  4686  4682    1
  2030   836   832    1
  2031  2874  2872    1
  2032  3297  3300    1
  2033  3338  3337    1
  2034  3484  3482    1
  2035  3126  3122    1
  2036  4687  4691    1
  2037  4687  4689    1
  2038  3720  3717    1
  2039  2635  2632    1
  2040  4738  4737    1
  2041  2173  2172    1
  2042  3672  3673    1
  2043  3672  3675    1
  2044  3122  3124    1
  2045  3122  3125    1
  2046  2176  2172    1
  2047  4542  4544    1
  2048  4542  4543    1
  2049  2701  2697    1
  2050   835   832    1
  2051  3341  3337    1
  2052  3007  3011    1
  2053  3007  3010    1
  2054  3007  3009    1
  2055  3958  3957    1
  2056   280   277    1
  2057  3717  3721    1
  2058  3717  3718    1
  2059  1570  1567    1
  2060  4289  4287    1
  2061  4615  4612    1
  2062  2578  2577    1
  2063  1571  1567    1
  2064  4504  4502    1
  2065  4682  4685    1
  2066  4682  4684    1
  2067  4706  4702    1
  2068  3313  3312    1
  2069   392   396    1
  2070   392   395    1
  2071   392   393    1
  2072  1944  1942    1
  2073  4106  4102    1
  2074   450   447    1
  2075  4741  4737    1
  2076   832   834    1
  2077   832   833    1
  2078  2697  2699    1
  2079  2697  2698    1
  2080  4287  4291    1
  2081  4287  4290    1
  2082  2530  2527    1
  2083  2174  2172    1
  2084  2678  2677    1
  2085  3339  3337    1
  2086  3083  3082    1
  2087  2172  2175    1
  2088   109   108    1
  2089  4034  4032    1
  2090   195   189    1
  2091   195   196    2
  2092  4036  4032    1
  2093  3399  3397    1
  2094  2577  2581    1
  2095  2577  2580    1
  2096  3957  3961    1
  2097  3957  3959    1
  2098  3000  2997    1
  2099  3337  3340    1
  2100   189   190    1
  2101   189   191    1
  2102  3545  3542    1
  2103  1969  1967    1
  2104   905   902    1
  2105   108   110    1
  2106   108   111    1
  2107  4614  4612    1
  2108  1246  1242    1
  2109  2528  2527    1
  2110  3079  3077    1
  2111   193   191    1
  2112  2636  2632    1
  2113  4705  4702    1
  2114  3608  3607    1
  2115  2527  2531    1
  2116   278   277    1
  2117   734   732    1
  2118  1245  1242    1
  2119  3077  3081    1
  2120  3077  3078    1
  2121  1999  1997    1
  2122  4737  4740    1
  2123  4737  4739    1
  2124  2755  2752    1
  2125  3444  3442    1
  2126  4035  4032    1
  2127  2754  2752    1
  2128  1647  1648    1
  2129  1647  1651    1
  2130  1647  1650    1
  2131  1567  1568    1
  2132  1567  1569    1
  2133  4613  4612    1
  2134  1945  1942    1
  2135  2074  2072    1
  2136  4703  4702    1
  2137  2872  2875    1
  2138  2872  2873    1
  2139  2872  2876    1
  2140  2679  2677    1
  2141   448   447    1
  2142  2560  2557    1
  2143  1233  1232    1
  2144  4702  4704    1
  2145  1798  1797    1
  2146  2707  2711    1
  2147  2707  2710    1
  2148  2707  2708    1
  2149  2632  2633    1
  2150  2632  2634    1
  2151  1188  1187    1
  2152  2903  2902    1
  2153  4032  4033    1
  2154  4612  4616    1
  2155  4103  4102    1
  2156  1317  1321    1
  2157  1317  1318    1
  2158  1317  1319    1
  2159  3797  3799    1
  2160  3797  3801    1
  2161  3797  3800    1
  2162  1232  1236    1
  2163  1232  1235    1
  2164   191   194    1
  2165   191   192    1
  2166   277   279    1
  2167   277   281    1
  2168  2783  2782    1
  2169  3443  3442    1
  2170  2076  2072    1
  2171  1242  1244    1
  2172  1242  1243    1
  2173  2705  2702    1
  2174  2928  2927    1
  2175  4226  4222    1
  2176  3446  3442    1
  2177  3482  3486    1
  2178  3482  3483    1
  2179  3482  3485    1
  2180  1946  1942    1
  2181  4102  4104    1
  2182  4102  4105    1
  2183  2524  2522    1
  2184  2929  2927    1
  2185  2677  2680    1
  2186  2677  2681    1
  2187   421   417    1
  2188  1942  1943    1
  2189   733   732    1
  2190  2718  2717    1
  2191  1179  1177    1
  2192   447   449    1
  2193   447   451    1
  2194   736   732    1
  2195  3544  3542    1
  2196  2930  2927    1
  2197  1181  1177    1
  2198  2526  2522    1
  2199  3316  3312    1
  2200  3084  3082    1
  2201  3442  3445    1
  2202  4224  4222    1
  2203   904   902    1
  2204   824   822    1
  2205  2752  2756    1
  2206  2752  2753    1
  2207  2618  2617    1
  2208  3312  3315    1
  2209  3312  3314    1
  2210   732   735    1
  2211  3611  3607    1
  2212   111   112    1
  2213   111   113    1
  2214   111   114    1
  2215  4502  4503    1
  2216  4502  4506    1
  2217  4502  4505    1
  2218  1190  1187    1
  2219  4428  4427    1
  2220  1906  1902    1
  2221  3400  3397    1
  2222  4430  4427    1
  2223  3234  3232    1
  2224  2927  2931    1
  2225  3542  3546    1
  2226  3542  3543    1
  2227  3082  3086    1
  2228  3082  3085    1
  2229  2072  2073    1
  2230  2072  2075    1
  2231  1178  1177    1
  2232  4080  4077    1
  2233  1968  1967    1
  2234  3397  3401    1
  2235  3397  3398    1
  2236  3607  3609    1
  2237  3607  3610    1
  2238   902   906    1
  2239   902   903    1
  2240   573   572    1
  2241  2786  2782    1
  2242   829   827    1
  2243  1967  1971    1
  2244  1967  1970    1
  2245  2616  2612    1
  2246  1800  1797    1
  2247  3929  3927    1
  2248  1177  1180    1
  2249  3836  3832    1
  2250  1191  1187    1
  2251  2720  2717    1
  2252   419   417    1
  2253  2997  2999    1
  2254  2997  3001    1
  2255  2997  2998    1
  2256  4222  4225    1
  2257  4222  4223    1
  2258  2522  2523    1
  2259  2522  2525    1
  2260  1187  1189    1
  2261  3643  3642    1
  2262  2620  2617    1
  2263  1566  1562    1
  2264   417   420    1
  2265   417   418    1
  2266  4275  4272    1
  2267  1490  1487    1
  2268  1797  1799    1
  2269  1797  1801    1
  2270  2038  2037    1
  2271  2561  2557    1
  2272  4431  4427    1
  2273  1489  1487    1
  2274  1997  1998    1
  2275  1997  2000    1
  2276  1997  2001    1
  2277  2782  2785    1
  2278  2782  2784    1
  2279  2704  2702    1
  2280  2721  2717    1
  2281  1564  1562    1
  2282  2557  2559    1
  2283  2557  2558    1
  2284   340   337    1
  2285  3323  3322    1
  2286  4416  4412    1
  2287  2039  2037    1
  2288  2717  2719    1
  2289  2902  2904    1
  2290  2902  2906    1
  2291  2902  2905    1
  2292  4427  4429    1
  2293  1149  1147    1
  2294  2702  2703    1
  2295  2702  2706    1
  2296  3834  3832    1
  2297  2041  2037    1
  2298  3236  3232    1
  2299  1903  1902    1
  2300   653   652    1
  2301   995   992    1
  2302  2617  2621    1
  2303  2617  2619    1
  2304  3088  3087    1
  2305  1838  1837    1
  2306  1902  1904    1
  2307  1902  1905    1
  2308  3644  3642    1
  2309  3280  3277    1
  2310   330   327    1
  2311  4110  4107    1
  2312  2615  2612    1
  2313  3571  3567    1
  2314  3832  3835    1
  2315  3832  3833    1
  2316  3759  3757    1
  2317  1148  1147    1
  2318  2037  2040    1
  2319  2612  2613    1
  2320  2612  2614    1
  2321   826   822    1
  2322  1562  1563    1
  2323  1562  1565    1
  2324  1065  1062    1
  2325  4108  4107    1
  2326  3701  3697    1
  2327   822   823    1
  2328   822   825    1
  2329  3232  3233    1
  2330  3232  3235    1
  2331  2275  2272    1
  2332   341   337    1
  2333  2276  2272    1
  2334  1487  1491    1
  2335  1487  1488    1
  2336   861   857    1
  2337   831   827    1
  2338   575   572    1
  2339  3285  3282    1
  2340  1386  1382    1
  2341  1839  1837    1
  2342   827   830    1
  2343   827   828    1
  2344   572   576    1
  2345   572   574    1
  2346  1706  1702    1
  2347   858   857    1
  2348  3642  3646    1
  2349  3642  3645    1
  2350   615   612    1
  2351   996   992    1
  2352  1063  1062    1
  2353  3699  3697    1
  2354   936   932    1
  2355  4412  4413    1
  2356  4412  4415    1
  2357  4412  4414    1
  2358  4077  4081    1
  2359  4077  4079    1
  2360  4077  4078    1
  2361  1054  1052    1
  2362  3700  3697    1
  2363  3279  3277    1
  2364   654   652    1
  2365  1147  1151    1
  2366  1147  1150    1
  2367  2659  2657    1
  2368   337   338    1
  2369   337   339    1
  2370  3927  3931    1
  2371  3927  3928    1
  2372  3927  3930    1
  2373  3775  3772    1
  2374  2848  2847    1
  2375  3697  3698    1
  2376  4276  4272    1
  2377  4272  4274    1
  2378  4272  4273    1
  2379  2670  2667    1
  2380  4107  4109    1
  2381  4107  4111    1
  2382  1385  1382    1
  2383  1996  1992    1
  2384  4194  4192    1
  2385   992   993    1
  2386   992   994    1
  2387  3567  3570    1
  2388  3567  3569    1
  2389  3567  3568    1
  2390  2668  2667    1
  2391  1628  1627    1
  2392  2272  2274    1
  2393  2272  2273    1
  2394  2605  2602    1
  2395   293   292    1
  2396   857   859    1
  2397   857   860    1
  2398   984   982    1
  2399   652   656    1
  2400   652   655    1
  2401  3322  3324    1
  2402  3322  3326    1
  2403  3322  3325    1
  2404  1837  1840    1
  2405  1837  1841    1
  2406  1704  1702    1
  2407  1066  1062    1
  2408  3758  3757    1
  2409  1062  1064    1
  2410  2743  2742    1
  2411  3277  3278    1
  2412  3277  3281    1
  2413  4189  4187    1
  2414   614   612    1
  2415   933   932    1
  2416  2503  2502    1
  2417  4579  4577    1
  2418  1459  1457    1
  2419  1382  1384    1
  2420  1382  1383    1
  2421  3757  3760    1
  2422  3757  3761    1
  2423  4076  4072    1
  2424  3660  3657    1
  2425  3776  3772    1
  2426  1702  1705    1
  2427  1702  1703    1
  2428   932   934    1
  2429   932   935    1
  2430  3286  3282    1
  2431   328   327    1
  2432  3089  3087    1
  2433  1060  1057    1
  2434  3318  3317    1
  2435   327   329    1
  2436   327   331    1
  2437  3087  3091    1
  2438  3087  3090    1
  2439  2671  2667    1
  2440  1055  1052    1
  2441   301   297    1
  2442  2851  2847    1
  2443  4074  4072    1
  2444   958   957    1
  2445   300   297    1
  2446   464   462    1
  2447  2667  2669    1
  2448  3282  3284    1
  2449  3282  3283    1
  2450  2849  2847    1
  2451  4021  4017    1
  2452   298   297    1
  2453  4191  4187    1
  2454  2495  2492    1
  2455   612   613    1
  2456   612   616    1
  2457  3772  3773    1
  2458  3772  3774    1
  2459  2847  2850    1
  2460  2599  2597    1
  2461  3661  3657    1
  2462  2600  2597    1
  2463  1992  1995    1
  2464  1992  1993    1
  2465  1992  1994    1
  2466  2008  2007    1
  2467  4073  4072    1
  2468  2598  2597    1
  2469  1496  1492    1
  2470  1052  1053    1
  2471  1052  1056    1
  2472  3659  3657    1
  2473  4072  4075    1
  2474  1629  1627    1
  2475   297   299    1
  2476  4563  4562    1
  2477  4520  4517    1
  2478   294   292    1
  2479  2744  2742    1
  2480  1059  1057    1
  2481  4018  4017    1
  2482  3379  3377    1
  2483  4187  4188    1
  2484  4187  4190    1
  2485   463   462    1
  2486  3657  3658    1
  2487  1263  1262    1
  2488  1495  1492    1
  2489   292   295    1
  2490   292   296    1
  2491  2661  2657    1
  2492  2009  2007    1
  2493  2657  2660    1
  2494  2657  2658    1
  2495  3940  3937    1
  2496  1627  1631    1
  2497  1627  1630    1
  2498  2606  2602    1
  2499  1770  1767    1
  2500  2603  2602    1
  2501  4720  4717    1
  2502  2602  2604    1
  2503  4604  4602    1
  2504  2597  2601    1
  2505  4008  4007    1
  2506  2896  2892    1
  2507  2505  2502    1
  2508  4017  4019    1
  2509  4017  4020    1
  2510  4718  4717    1
  2511   985   982    1
  2512  2742  2746    1
  2513  2742  2745    1
  2514  2506  2502    1
  2515  2502  2504    1
  2516  4192  4193    1
  2517  4192  4196    1
  2518  4192  4195    1
  2519   982   986    1
  2520   982   983    1
  2521  4578  4577    1
  2522  4577  4581    1
  2523  4577  4580    1
  2524  1057  1061    1
  2525  1057  1058    1
  2526  2494  2492    1
  2527  4488  4487    1
  2528   462   466    1
  2529   462   465    1
  2530  4043  4042    1
  2531  1492  1493    1
  2532  1492  1494    1
  2533  3939  3937    1
  2534   513   512    1
  2535   960   957    1
  2536  4491  4487    1
  2537  3868  3867    1
  2538  3870  3867    1
  2539   364   362    1
  2540  1771  1767    1
  2541  1457  1461    1
  2542  1457  1458    1
  2543  1457  1460    1
  2544  1893  1892    1
  2545  2492  2493    1
  2546  2492  2496    1
  2547   957   961    1
  2548   957   959    1
  2549  2438  2437    1
  2550  3317  3320    1
  2551  3317  3321    1
  2552  3317  3319    1
  2553   516   512    1
  2554  2007  2011    1
  2555  2007  2010    1
  2556  2088  2087    1
  2557   370   367    1
  2558  4388  4387    1
  2559  4490  4487    1
  2560  2406  2402    1
  2561  1171  1167    1
  2562  1779  1777    1
  2563   891   887    1
  2564  4717  4719    1
  2565  4717  4721    1
  2566   648   647    1
  2567   519   517    1
  2568  1785  1782    1
  2569  2892  2894    1
  2570  2892  2895    1
  2571  2892  2893    1
  2572  4487  4489    1
  2573   563   562    1
  2574   366   362    1
  2575  3937  3938    1
  2576  3937  3941    1
  2577   649   647    1
  2578  2533  2532    1
  2579  2884  2882    1
  2580  2340  2337    1
  2581  1767  1768    1
  2582  1767  1769    1
  2583  4566  4562    1
  2584  1896  1892    1
  2585  3500  3497    1
  2586   321   317    1
  2587  1264  1262    1
  2588  4562  4564    1
  2589  4562  4565    1
  2590  1170  1167    1
  2591  4517  4521    1
  2592  4517  4519    1
  2593  4517  4518    1
  2594  2214  2212    1
  2595   311   307    1
  2596   512   515    1
  2597   512   514    1
  2598  2090  2087    1
  2599  2684  2682    1
  2600  1985  1982    1
  2601  1262  1266    1
  2602  1262  1265    1
  2603   650   647    1
  2604  3867  3871    1
  2605  3867  3869    1
  2606  3377  3380    1
  2607  3377  3381    1
  2608  3377  3378    1
  2609  4516  4512    1
  2610  1155  1152    1
  2611   538   537    1
  2612   362   363    1
  2613   362   365    1
  2614  2485  2482    1
  2615   320   317    1
  2616   371   367    1
  2617  1784  1782    1
  2618   647   651    1
  2619  2403  2402    1
  2620  4602  4603    1
  2621  4602  4605    1
  2622  4602  4606    1
  2623  2404  2402    1
  2624  2686  2682    1
  2625  1786  1782    1
  2626  1560  1557    1
  2627  1425  1422    1
  2628  2402  2405    1
  2629   640   637    1
  2630  1892  1895    1
  2631  1892  1894    1
  2632   638   637    1
  2633  3459  3457    1
  2634  1204  1202    1
  2635  2087  2089    1
  2636  2087  2091    1
  2637  4007  4010    1
  2638  4007  4011    1
  2639  4007  4009    1
  2640  1167  1168    1
  2641  1167  1169    1
  2642   309   307    1
  2643  2535  2532    1
  2644  4389  4387    1
  2645   887   890    1
  2646   887   888    1
  2647   887   889    1
  2648   781   777    1
  2649  3499  3497    1
  2650  1423  1422    1
  2651  4168  4167    1
  2652   367   368    1
  2653   367   369    1
  2654  1782  1783    1
  2655  3793  3792    1
  2656  4042  4046    1
  2657  4042  4045    1
  2658  4042  4044    1
  2659  1463  1462    1
  2660   317   318    1
  2661   317   319    1
  2662  2532  2534    1
  2663  2532  2536    1
  2664  1426  1422    1
  2665  4728  4727    1
  2666  4515  4512    1
  2667  4324  4322    1
  2668  4387  4391    1
  2669  4387  4390    1
  2670   307   310    1
  2671   307   308    1
  2672  2885  2882    1
  2673  3501  3497    1
  2674  4513  4512    1
  2675  4512  4514    1
  2676  3497  3498    1
  2677  2682  2685    1
  2678  2682  2683    1
  2679  1034  1032    1
  2680  2437  2441    1
  2681  2437  2440    1
  2682  2437  2439    1
  2683  1777  1781    1
  2684  1777  1778    1
  2685  1777  1780    1
  2686  2960  2957    1
  2687  2216  2212    1
  2688  2483  2482    1
  2689   637   639    1
  2690   637   641    1
  2691  1422  1424    1
  2692   780   777    1
  2693  4169  4167    1
  2694  2882  2883    1
  2695  2882  2886    1
  2696  2212  2215    1
  2697  2212  2213    1
  2698   517   521    1
  2699   517   518    1
  2700   517   520    1
  2701  2959  2957    1
  2702   779   777    1
  2703  3604  3602    1
  2704  3209  3207    1
  2705   562   566    1
  2706   562   565    1
  2707   562   564    1
  2708  4135  4132    1
  2709   777   778    1
  2710  1035  1032    1
  2711  3360  3357    1
  2712  1156  1152    1
  2713  4325  4322    1
  2714  1152  1153    1
  2715  1152  1154    1
  2716  2337  2338    1
  2717  2337  2341    1
  2718  2337  2339    1
  2719  2356  2352    1
  2720  1438  1437    1
  2721  2482  2484    1
  2722  2482  2486    1
  2723  1986  1982    1
  2724  1982  1984    1
  2725  1982  1983    1
  2726  4729  4727    1
  2727  2021  2017    1
  2728  1889  1887    1
  2729  2480  2477    1
  2730  1966  1962    1
  2731  4638  4637    1
  2732  3458  3457    1
  2733  4167  4171    1
  2734  4167  4170    1
  2735  4101  4097    1
  2736  3263  3262    1
  2737  3457  3460    1
  2738  3457  3461    1
  2739  1736  1732    1
  2740  2020  2017    1
  2741   537   541    1
  2742   537   539    1
  2743   537   540    1
  2744  2354  2352    1
  2745   511   507    1
  2746  1557  1559    1
  2747  1557  1561    1
  2748  1557  1558    1
  2749  3784  3782    1
  2750  1291  1287    1
  2751  2479  2477    1
  2752  4714  4712    1
  2753   510   507    1
  2754  1202  1205    1
  2755  1202  1206    1
  2756  1202  1203    1
  2757  1735  1732    1
  2758  4099  4097    1
  2759  4696  4692    1
  2760  1289  1287    1
  2761  1032  1033    1
  2762  1032  1036    1
  2763  2957  2961    1
  2764  2957  2958    1
  2765  3149  3147    1
  2766  4322  4326    1
  2767  4322  4323    1
  2768  1924  1922    1
  2769  4731  4727    1
  2770  1963  1962    1
  2771  3148  3147    1
  2772  3258  3257    1
  2773  4727  4730    1
  2774  3158  3157    1
  2775  4679  4677    1
  2776  4133  4132    1
  2777  4649  4647    1
  2778  1220  1217    1
  2779  2478  2477    1
  2780  3358  3357    1
  2781  3792  3796    1
  2782  3792  3795    1
  2783  3792  3794    1
  2784  2352  2355    1
  2785  2352  2353    1
  2786  2017  2018    1
  2787  2017  2019    1
  2788   508   507    1
  2789  3293  3292    1
  2790  1462  1466    1
  2791  1462  1465    1
  2792  1462  1464    1
  2793  4098  4097    1
  2794   507   509    1
  2795  2477  2481    1
  2796  4097  4100    1
  2797  3159  3157    1
  2798   378   377    1
  2799  2764  2762    1
  2800  1962  1965    1
  2801  1962  1964    1
  2802  3357  3359    1
  2803  3357  3361    1
  2804   428   427    1
  2805  3259  3257    1
  2806  1732  1734    1
  2807  1732  1733    1
  2808  1287  1288    1
  2809  1287  1290    1
  2810  1441  1437    1
  2811  4715  4712    1
  2812  3264  3262    1
  2813  4132  4134    1
  2814  4132  4136    1
  2815  1255  1252    1
  2816  1911  1907    1
  2817  3783  3782    1
  2818  3602  3605    1
  2819  3602  3603    1
  2820  3602  3606    1
  2821   819   817    1
  2822  3390  3387    1
  2823  3265  3262    1
  2824  1437  1440    1
  2825  1437  1439    1
  2826  1129  1127    1
  2827  4529  4527    1
  2828  3294  3292    1
  2829  2644  2642    1
  2830  3262  3266    1
  2831  4692  4693    1
  2832  4692  4695    1
  2833  4692  4694    1
  2834  3207  3211    1
  2835  3207  3208    1
  2836  3207  3210    1
  2837  2813  2812    1
  2838  3782  3786    1
  2839  3782  3785    1
  2840  4639  4637    1
  2841  3147  3151    1
  2842  3147  3150    1
  2843  4712  4713    1
  2844  4712  4716    1
  2845  2058  2057    1
  2846  1923  1922    1
  2847  2816  2812    1
  2848  4637  4641    1
  2849  4637  4640    1
  2850  3257  3260    1
  2851  3257  3261    1
  2852  3075  3072    1
  2853  1909  1907    1
  2854  3157  3161    1
  2855  3157  3160    1
  2856  1887  1890    1
  2857  1887  1891    1
  2858  1887  1888    1
  2859  3074  3072    1
  2860  1925  1922    1
  2861   693   692    1
  2862  1922  1926    1
  2863  4681  4677    1
  2864  4648  4647    1
  2865  1908  1907    1
  2866  1907  1910    1
  2867  4677  4680    1
  2868  4677  4678    1
  2869   379   377    1
  2870  2646  2642    1
  2871  4530  4527    1
  2872  1221  1217    1
  2873  3292  3296    1
  2874  3292  3295    1
  2875  3513  3512    1
  2876  4647  4651    1
  2877  4647  4650    1
  2878   696   692    1
  2879  2060  2057    1
  2880   820   817    1
  2881  2766  2762    1
  2882  1217  1219    1
  2883  1217  1218    1
  2884  3173  3172    1
  2885  2812  2814    1
  2886  2812  2815    1
  2887  1014  1012    1
  2888  2643  2642    1
  2889   821   817    1
  2890  1131  1127    1
  2891   377   381    1
  2892   377   380    1
  2893  4143  4142    1
  2894  4535  4532    1
  2895  2642  2645    1
  2896   400   397    1
  2897  1524  1522    1
  2898  2762  2763    1
  2899  2762  2765    1
  2900   850   847    1
  2901   817   818    1
  2902   401   397    1
  2903  3164  3162    1
  2904  4211  4207    1
  2905  3389  3387    1
  2906  1128  1127    1
  2907   430   427    1
  2908  3388  3387    1
  2909  3387  3391    1
  2910  3740  3737    1
  2911  1765  1762    1
  2912  4531  4527    1
  2913  4527  4528    1
  2914  2914  2912    1
  2915  1774  1772    1
  2916  4536  4532    1
  2917  1127  1130    1
  2918  3072  3073    1
  2919  3072  3076    1
  2920   754   752    1
  2921  1480  1477    1
  2922   427   429    1
  2923   427   431    1
  2924   770   767    1
  2925  3100  3097    1
  2926  3013  3012    1
  2927  1256  1252    1
  2928  2030  2027    1
  2929  3166  3162    1
  2930  3628  3627    1
  2931   692   695    1
  2932   692   694    1
  2933  1252  1254    1
  2934  1252  1253    1
  2935  4538  4537    1
  2936  2057  2061    1
  2937  2057  2059    1
  2938  1355  1352    1
  2939  1758  1757    1
  2940  1959  1957    1
  2941  1454  1452    1
  2942   398   397    1
  2943  3741  3737    1
  2944   397   399    1
  2945  1761  1757    1
  2946  1481  1477    1
  2947  3849  3847    1
  2948  3630  3627    1
  2949  1354  1352    1
  2950  2991  2987    1
  2951  3014  3012    1
  2952  1525  1522    1
  2953  4539  4537    1
  2954  3162  3165    1
  2955  3162  3163    1
  2956  4532  4534    1
  2957  4532  4533    1
  2958  2989  2987    1
  2959  1478  1477    1
  2960  4343  4342    1
  2961  4724  4722    1
  2962  1958  1957    1
  2963   895   892    1
  2964  4541  4537    1
  2965   228   227    1
  2966  3514  3512    1
  2967   528   527    1
  2968  4016  4012    1
  2969  3690  3687    1
  2970  4207  4210    1
  2971  4207  4209    1
  2972  4207  4208    1
  2973   740   737    1
  2974   894   892    1
  2975  3512  3515    1
  2976  3512  3516    1
  2977  3737  3739    1
  2978  3737  3738    1
  2979  4014  4012    1
  2980  1477  1479    1
  2981  3174  3172    1
  2982  2306  2302    1
  2983  4346  4342    1
  2984  1521  1517    1
  2985  4537  4540    1
  2986  1522  1523    1
  2987  1522  1526    1
  2988  4723  4722    1
  2989  4675  4672    1
  2990  3172  3175    1
  2991  3172  3176    1
  2992  4024  4022    1
  2993  3012  3015    1
  2994  3012  3016    1
  2995  2304  2302    1
  2996  1757  1759    1
  2997  1757  1760    1
  2998  3627  3629    1
  2999  3627  3631    1
  3000  1013  1012    1
  3001  3850  3847    1
  3002   851   847    1
  3003  4344  4342    1
  3004   530   527    1
  3005  1012  1015    1
  3006  1012  1016    1
  3007  3724  3722    1
  3008  2305  2302    1
  3009  1519  1517    1
  3010  3353  3352    1
  3011   739   737    1
  3012  1352  1356    1
  3013  1352  1353    1
  3014   847   848    1
  3015   847   849    1
  3016  4198  4197    1
  3017  1133  1132    1
  3018  1776  1772    1
  3019  4142  4145    1
  3020  4142  4146    1
  3021  4142  4144    1
  3022  2987  2990    1
  3023  2987  2988    1
  3024  2915  2912    1
  3025  3809  3807    1
  3026   231   227    1
  3027   738   737    1
  3028  1957  1961    1
  3029  1957  1960    1
  3030  2912  2916    1
  3031  2912  2913    1
  3032  4342  4345    1
  3033  4676  4672    1
  3034  2415  2412    1
  3035  1762  1764    1
  3036  1762  1766    1
  3037  1762  1763    1
  3038  1772  1773    1
  3039  1772  1775    1
  3040   216   212    1
  3041  4012  4013    1
  3042  4012  4015    1
  3043  2028  2027    1
  3044  2302  2303    1
  3045  1520  1517    1
  3046   214   212    1
  3047  3726  3722    1
  3048  4199  4197    1
  3049  4329  4327    1
  3050  4201  4197    1
  3051  3097  3099    1
  3052  3097  3101    1
  3053  3097  3098    1
  3054   230   227    1
  3055  2027  2031    1
  3056  2027  2029    1
  3057  3936  3932    1
  3058  3933  3932    1
  3059  3847  3851    1
  3060  3847  3848    1
  3061   767   769    1
  3062   767   771    1
  3063   767   768    1
  3064  1517  1518    1
  3065  4006  4002    1
  3066   892   896    1
  3067   892   893    1
  3068  1455  1452    1
  3069   737   741    1
  3070   752   756    1
  3071   752   755    1
  3072   752   753    1
  3073  4722  4725    1
  3074  4722  4726    1
  3075   227   229    1
  3076  3689  3687    1
  3077  4050  4047    1
  3078  2888  2887    1
  3079  1452  1456    1
  3080  1452  1453    1
  3081  4674  4672    1
  3082  4672  4673    1
  3083  4023  4022    1
  3084   527   529    1
  3085   527   531    1
  3086  3290  3287    1
  3087  1110  1107    1
  3088  3020  3017    1
  3089  3935  3932    1
  3090  4197  4200    1
  3091   560   557    1
  3092  3289  3287    1
  3093  3722  3725    1
  3094  3722  3723    1
  3095  4005  4002    1
  3096  4003  4002    1
  3097  2279  2277    1
  3098  1635  1632    1
  3099  3932  3934    1
  3100  1163  1162    1
  3101  3687  3691    1
  3102  3687  3688    1
  3103  3450  3447    1
  3104  4363  4362    1
  3105   544   542    1
  3106  2165  2162    1
  3107   855   852    1
  3108  3531  3527    1
  3109  4474  4472    1
  3110   212   215    1
  3111   212   213    1
  3112  2879  2877    1
  3113  4364  4362    1
  3114  3808  3807    1
  3115   546   542    1
  3116   558   557    1
  3117  2025  2022    1
  3118  4022  4026    1
  3119  4022  4025    1
  3120  4321  4317    1
  3121   376   372    1
  3122  3130  3127    1
  3123  4002  4004    1
  3124  3356  3352    1
  3125  4318  4317    1
  3126   374   372    1
  3127  4114  4112    1
  3128  3529  3527    1
  3129  2890  2887    1
  3130  2749  2747    1
  3131  2413  2412    1
  3132  3807  3810    1
  3133  3807  3811    1
  3134  2164  2162    1
  3135  2280  2277    1
  3136   853   852    1
  3137   545   542    1
  3138  4473  4472    1
  3139  3352  3355    1
  3140  3352  3354    1
  3141  3528  3527    1
  3142  3268  3267    1
  3143   261   257    1
  3144  1108  1107    1
  3145  2978  2977    1
  3146  1634  1632    1
  3147  1132  1134    1
  3148  1132  1136    1
  3149  1132  1135    1
  3150  4115  4112    1
  3151  4113  4112    1
  3152  3019  3017    1
  3153   542   543    1
  3154  3527  3530    1
  3155  4327  4330    1
  3156  4327  4328    1
  3157  4327  4331    1
  3158  3287  3291    1
  3159  3287  3288    1
  3160  2024  2022    1
  3161  2412  2414    1
  3162  2412  2416    1
  3163  1166  1162    1
  3164  1140  1137    1
  3165  4048  4047    1
  3166   557   561    1
  3167   557   559    1
  3168  1335  1332    1
  3169  4425  4422    1
  3170   372   375    1
  3171   372   373    1
  3172  3178  3177    1
  3173  1636  1632    1
  3174  3269  3267    1
  3175  2887  2889    1
  3176  2887  2891    1
  3177  4047  4051    1
  3178  4047  4049    1
  3179  1141  1137    1
  3180  2980  2977    1
  3181  2162  2163    1
  3182  2162  2166    1
  3183  4317  4319    1
  3184  4317  4320    1
  3185  4362  4366    1
  3186  4362  4365    1
  3187   223   222    1
  3188  1107  1111    1
  3189  1107  1109    1
  3190  4112  4116    1
  3191  3017  3021    1
  3192  3017  3018    1
  3193  1632  1633    1
  3194  2277  2281    1
  3195  2277  2278    1
  3196  1162  1165    1
  3197  1162  1164    1
  3198   852   856    1
  3199   852   854    1
  3200  4384  4382    1
  3201  4472  4476    1
  3202  4472  4475    1
  3203  1333  1332    1
  3204  1400  1397    1
  3205  2689  2687    1
  3206  2425  2422    1
  3207  2022  2026    1
  3208  2022  2023    1
  3209  2981  2977    1
  3210  1500  1497    1
  3211  3448  3447    1
  3212  4123  4122    1
  3213  3267  3270    1
  3214  3267  3271    1
  3215  4420  4417    1
  3216  2977  2979    1
  3217  1229  1227    1
  3218  3594  3592    1
  3219  3518  3517    1
  3220  1501  1497    1
  3221  4394  4392    1
  3222  3447  3451    1
  3223  3447  3449    1
  3224  1535  1532    1
  3225   257   259    1
  3226   257   258    1
  3227   257   260    1
  3228  4054  4052    1
  3229  4426  4422    1
  3230  4421  4417    1
  3231  1137  1138    1
  3232  1137  1139    1
  3233  1399  1397    1
  3234  2159  2157    1
  3235  1401  1397    1
  3236  1498  1497    1
  3237  1084  1082    1
  3238  2748  2747    1
  3239  1001   997    1
  3240  1332  1334    1
  3241  1332  1336    1
  3242  3127  3128    1
  3243  3127  3129    1
  3244  3127  3131    1
  3245  2877  2881    1
  3246  2877  2880    1
  3247  2877  2878    1
  3248  2333  2332    1
  3249   774   772    1
  3250  1928  1927    1
  3251  2747  2751    1
  3252  2747  2750    1
  3253  2096  2092    1
  3254  1497  1499    1
  3255  1833  1832    1
  3256  2139  2137    1
  3257   224   222    1
  3258  1397  1398    1
  3259  4422  4424    1
  3260  4422  4423    1
  3261  1340  1337    1
  3262  3521  3517    1
  3263  2551  2547    1
  3264  3601  3597    1
  3265   998   997    1
  3266   974   972    1
  3267  4386  4382    1
  3268  1534  1532    1
  3269   222   225    1
  3270   222   226    1
  3271  4417  4419    1
  3272  4417  4418    1
  3273  1930  1927    1
  3274  1556  1552    1
  3275   973   972    1
  3276  1085  1082    1
  3277  1344  1342    1
  3278  1420  1417    1
  3279  4349  4347    1
  3280  1421  1417    1
  3281  4055  4052    1
  3282  2334  2332    1
  3283  3177  3181    1
  3284  3177  3179    1
  3285  3177  3180    1
  3286  1554  1552    1
  3287   997  1000    1
  3288   997   999    1
  3289  4382  4383    1
  3290  4382  4385    1
  3291  2420  2417    1
  3292  4124  4122    1
  3293  3517  3519    1
  3294  3517  3520    1
  3295  1231  1227    1
  3296   915   912    1
  3297  4663  4662    1
  3298  3980  3977    1
  3299  2138  2137    1
  3300  1640  1637    1
  3301  3224  3222    1
  3302  2688  2687    1
  3303  1050  1047    1
  3304  1346  1342    1
  3305  2687  2691    1
  3306  2687  2690    1
  3307  2422  2426    1
  3308  2422  2424    1
  3309  2422  2423    1
  3310  1532  1536    1
  3311  1532  1533    1
  3312   975   972    1
  3313  3750  3747    1
  3314  1048  1047    1
  3315  4122  4126    1
  3316  4122  4125    1
  3317  3593  3592    1
  3318  2092  2095    1
  3319  2092  2093    1
  3320  2092  2094    1
  3321  4052  4056    1
  3322  4052  4053    1
  3323  1082  1083    1
  3324  1082  1086    1
  3325  3592  3596    1
  3326  3592  3595    1
  3327  2419  2417    1
  3328  4393  4392    1
  3329   972   976    1
  3330  1227  1230    1
  3331  1227  1228    1
  3332  1927  1931    1
  3333  1927  1929    1
  3334  4392  4395    1
  3335  4392  4396    1
  3336  2332  2335    1
  3337  2332  2336    1
  3338  2081  2077    1
  3339   775   772    1
  3340   664   662    1
  3341  1094  1092    1
  3342  1417  1418    1
  3343  1417  1419    1
  3344   416   412    1
  3345  2547  2550    1
  3346  2547  2548    1
  3347  2547  2549    1
  3348  3597  3599    1
  3349  3597  3600    1
  3350  3597  3598    1
  3351  1552  1555    1
  3352  1552  1553    1
  3353  1095  1092    1
  3354  2244  2242    1
  3355  2109  2107    1
  3356  2078  2077    1
  3357  1339  1337    1
  3358  2246  2242    1
  3359   772   776    1
  3360   772   773    1
  3361  2137  2141    1
  3362  2137  2140    1
  3363  3708  3707    1
  3364  2566  2562    1
  3365  2157  2160    1
  3366  2157  2158    1
  3367  2157  2161    1
  3368   414   412    1
  3369  2064  2062    1
  3370   916   912    1
  3371  2066  2062    1
  3372  2421  2417    1
  3373  4138  4137    1
  3374  1342  1343    1
  3375  1342  1345    1
  3376   410   407    1
  3377   749   747    1
  3378  2063  2062    1
  3379  2417  2418    1
  3380  4348  4347    1
  3381  4041  4037    1
  3382  4039  4037    1
  3383  1337  1341    1
  3384  1337  1338    1
  3385   723   722    1
  3386  3710  3707    1
  3387  3880  3877    1
  3388  2565  2562    1
  3389   333   332    1
  3390  1832  1836    1
  3391  1832  1835    1
  3392  1832  1834    1
  3393  2169  2167    1
  3394  4666  4662    1
  3395  4063  4062    1
  3396  1047  1051    1
  3397  1047  1049    1
  3398  2077  2079    1
  3399  2077  2080    1
  3400  3748  3747    1
  3401  4347  4351    1
  3402  4347  4350    1
  3403   912   914    1
  3404   912   913    1
  3405  2062  2065    1
  3406   665   662    1
  3407  2242  2245    1
  3408  2242  2243    1
  3409  1144  1142    1
  3410  1092  1096    1
  3411  1092  1093    1
  3412   412   415    1
  3413   412   413    1
  3414   444   442    1
  3415  2564  2562    1
  3416  3974  3972    1
  3417  1721  1717    1
  3418  1660  1657    1
  3419  3747  3751    1
  3420  3747  3749    1
  3421   748   747    1
  3422  2562  2563    1
  3423  2500  2497    1
  3424   336   332    1
  3425  4662  4665    1
  3426  4662  4664    1
  3427  2859  2857    1
  3428  1638  1637    1
  3429  1637  1639    1
  3430  1637  1641    1
  3431  2396  2392    1
  3432  2501  2497    1
  3433  4037  4038    1
  3434  4037  4040    1
  3435  3977  3981    1
  3436  3977  3978    1
  3437  3977  3979    1
  3438  1258  1257    1
  3439   411   407    1
  3440  2858  2857    1
  3441  3890  3887    1
  3442  3707  3709    1
  3443  3707  3711    1
  3444   662   663    1
  3445   662   666    1
  3446  3948  3947    1
  3447  4745  4742    1
  3448  3222  3226    1
  3449  3222  3223    1
  3450  3222  3225    1
  3451  1261  1257    1
  3452  2393  2392    1
  3453  2005  2002    1
  3454  1718  1717    1
  3455   747   751    1
  3456   747   750    1
  3457  1143  1142    1
  3458   407   408    1
  3459   407   409    1
  3460  3881  3877    1
  3461  3111  3107    1
  3462   332   334    1
  3463   332   335    1
  3464  4141  4137    1
  3465  2993  2992    1
  3466  3950  3947    1
  3467  1719  1717    1
  3468  1717  1720    1
  3469  4137  4139    1
  3470  4137  4140    1
  3471  1239  1237    1
  3472  2107  2108    1
  3473  2107  2111    1
  3474  2107  2110    1
  3475  1278  1277    1
  3476   569   567    1
  3477  3983  3982    1
  3478   445   442    1
  3479  2497  2499    1
  3480  2497  2498    1
  3481  3877  3879    1
  3482  3877  3878    1
  3483  2861  2857    1
  3484  2857  2860    1
  3485  2392  2395    1
  3486  2392  2394    1
  3487  1146  1142    1
  3488  1142  1145    1
  3489  3894  3892    1
  3490  4175  4172    1
  3491  1257  1260    1
  3492  1257  1259    1
  3493  1659  1657    1
  3494  2224  2222    1
  3495  3889  3887    1
  3496   722   725    1
  3497   722   726    1
  3498   722   724    1
  3499  3895  3892    1
  3500   951   947    1
  3501  1545  1542    1
  3502  4176  4172    1
  3503   442   443    1
  3504   442   446    1
  3505  2167  2171    1
  3506  2167  2168    1
  3507  2167  2170    1
  3508  4062  4066    1
  3509  4062  4064    1
  3510  4062  4065    1
  3511  3275  3272    1
  3512  4398  4397    1
  3513  1616  1612    1
  3514  1657  1661    1
  3515  1657  1658    1
  3516  3947  3951    1
  3517  3947  3949    1
  3518  3976  3972    1
  3519  3984  3982    1
  3520  2004  2002    1
  3521   568   567    1
  3522  4744  4742    1
  3523  3972  3975    1
  3524  3972  3973    1
  3525  2370  2367    1
  3526  2509  2507    1
  3527  3107  3110    1
  3528  3107  3108    1
  3529  3107  3109    1
  3530  3956  3952    1
  3531  4399  4397    1
  3532  3695  3692    1
  3533  3887  3891    1
  3534  3887  3888    1
  3535  4401  4397    1
  3536  2371  2367    1
  3537  3276  3272    1
  3538  1615  1612    1
  3539   570   567    1
  3540  2943  2942    1
  3541  2734  2732    1
  3542  4742  4746    1
  3543  4742  4743    1
  3544  1211  1207    1
  3545  1224  1222    1
  3546  3953  3952    1
  3547  4172  4173    1
  3548  4172  4174    1
  3549  2204  2202    1
  3550   567   571    1
  3551  2002  2006    1
  3552  2002  2003    1
  3553   950   947    1
  3554  3429  3427    1
  3555  4397  4400    1
  3556   947   949    1
  3557   947   948    1
  3558  2510  2507    1
  3559  3982  3986    1
  3560  3982  3985    1
  3561  1209  1207    1
  3562  3892  3896    1
  3563  3892  3893    1
  3564  1938  1937    1
  3565  2368  2367    1
  3566  1612  1614    1
  3567  1612  1613    1
  3568  2225  2222    1
  3569  3504  3502    1
  3570  2508  2507    1
  3571  1584  1582    1
  3572  1216  1212    1
  3573  2367  2369    1
  3574  2223  2222    1
  3575  1123  1122    1
  3576  3272  3273    1
  3577  3272  3274    1
  3578  1281  1277    1
  3579  2992  2996    1
  3580  2992  2994    1
  3581  2992  2995    1
  3582  1277  1280    1
  3583  1277  1279    1
  3584  2222  2226    1
  3585  3952  3955    1
  3586  3952  3954    1
  3587  1214  1212    1
  3588  1125  1122    1
  3589  1546  1542    1
  3590  1237  1241    1
  3591  1237  1240    1
  3592  1237  1238    1
  3593  1210  1207    1
  3594  2507  2511    1
  3595  1886  1882    1
  3596  1207  1208    1
  3597  4748  4747    1
  3598  3430  3427    1
  3599  1542  1543    1
  3600  1542  1544    1
  3601  4268  4267    1
  3602  2945  2942    1
  3603   659   657    1
  3604   660   657    1
  3605  2595  2592    1
  3606  1474  1472    1
  3607   670   667    1
  3608   669   667    1
  3609  1360  1357    1
  3610  1361  1357    1
  3611  1226  1222    1
  3612  2946  2942    1
  3613  2942  2944    1
  3614  1212  1215    1
  3615  1212  1213    1
  3616  2863  2862    1
  3617  4271  4267    1
  3618  2736  2732    1
  3619  1222  1223    1
  3620  1222  1225    1
  3621  3054  3052    1
  3622   668   667    1
  3623   483   482    1
  3624  2314  2312    1
  3625  1939  1937    1
  3626  3427  3431    1
  3627  3427  3428    1
  3628  1122  1126    1
  3629  1122  1124    1
  3630  2732  2733    1
  3631  2732  2735    1
  3632  1791  1787    1
  3633  1409  1407    1
  3634  3692  3696    1
  3635  3692  3694    1
  3636  3692  3693    1
  3637  1788  1787    1
  3638  3053  3052    1
  3639  2084  2082    1
  3640   667   671    1
  3641  4750  4747    1
  3642  1937  1940    1
  3643  1937  1941    1
  3644  1882  1884    1
  3645  1882  1885    1
  3646  1882  1883    1
  3647  4267  4269    1
  3648  4267  4270    1
  3649  4751  4747    1
  3650  2202  2206    1
  3651  2202  2203    1
  3652  2202  2205    1
  3653  1357  1359    1
  3654  1357  1358    1
  3655   486   482    1
  3656   657   658    1
  3657   657   661    1
  3658  3505  3502    1
  3659  4747  4749    1
  3660  3533  3532    1
  3661  3502  3506    1
  3662  3502  3503    1
  3663  2313  2312    1
  3664  1790  1787    1
  3665  4094  4092    1
  3666  1323  1322    1
  3667  1582  1585    1
  3668  1582  1583    1
  3669  1582  1586    1
  3670  2864  2862    1
  3671  1787  1789    1
  3672  1325  1322    1
  3673  2865  2862    1
  3674  1324  1322    1
  3675  4499  4497    1
  3676  2188  2187    1
  3677   482   485    1
  3678   482   484    1
  3679  1476  1472    1
  3680  4698  4697    1
  3681  1472  1473    1
  3682  1472  1475    1
  3683  2862  2866    1
  3684  3052  3056    1
  3685  3052  3055    1
  3686  2592  2594    1
  3687  2592  2593    1
  3688  2592  2596    1
  3689  3535  3532    1
  3690  3408  3407    1
  3691  3045  3042    1
  3692  1322  1326    1
  3693  3046  3042    1
  3694  1749  1747    1
  3695  4510  4507    1
  3696  2190  2187    1
  3697  2312  2316    1
  3698  2312  2315    1
  3699  3411  3407    1
  3700   610   607    1
  3701  1407  1410    1
  3702  1407  1408    1
  3703  1407  1411    1
  3704  1750  1747    1
  3705  3532  3536    1
  3706  3532  3534    1
  3707  1688  1687    1
  3708  2082  2083    1
  3709  2082  2086    1
  3710  2082  2085    1
  3711  3410  3407    1
  3712  2320  2317    1
  3713  2631  2627    1
  3714  4093  4092    1
  3715  2629  2627    1
  3716  3042  3044    1
  3717  3042  3043    1
  3718  3407  3409    1
  3719  2271  2267    1
  3720  2187  2191    1
  3721  2187  2189    1
  3722  1748  1747    1
  3723  3488  3487    1
  3724  2343  2342    1
  3725  4092  4095    1
  3726  4092  4096    1
  3727  4498  4497    1
  3728  4511  4507    1
  3729  1747  1751    1
  3730  3141  3137    1
  3731  3140  3137    1
  3732  4573  4572    1
  3733  4497  4501    1
  3734  4497  4500    1
  3735  4509  4507    1
  3736  2344  2342    1
  3737  4569  4567    1
  3738  3510  3507    1
  3739  3509  3507    1
  3740  2627  2630    1
  3741  2627  2628    1
  3742  4507  4508    1
  3743   474   472    1
  3744   475   472    1
  3745  4574  4572    1
  3746  4697  4701    1
  3747  4697  4699    1
  3748  4697  4700    1
  3749  2345  2342    1
  3750  2104  2102    1
  3751  3137  3138    1
  3752  3137  3139    1
  3753  2342  2346    1
  3754  2267  2270    1
  3755  2267  2269    1
  3756  2267  2268    1
  3757  2321  2317    1
  3758  3491  3487    1
  3759   476   472    1
  3760   607   608    1
  3761   607   611    1
  3762   607   609    1
  3763  4572  4575    1
  3764  4572  4576    1
  3765  3507  3508    1
  3766  3507  3511    1
  3767   471   467    1
  3768  1030  1027    1
  3769   728   727    1
  3770   472   473    1
  3771  2317  2318    1
  3772  2317  2319    1
  3773  1687  1690    1
  3774  1687  1689    1
  3775  1687  1691    1
  3776  4568  4567    1
  3777  3487  3490    1
  3778  3487  3489    1
  3779  1029  1027    1
  3780  4567  4571    1
  3781  4567  4570    1
  3782  3904  3902    1
  3783   705   702    1
  3784   404   402    1
  3785  1864  1862    1
  3786  2106  2102    1
  3787   703   702    1
  3788  1865  1862    1
  3789  2102  2105    1
  3790  2102  2103    1
  3791   467   469    1
  3792   467   468    1
  3793   467   470    1
  3794  1027  1031    1
  3795  1027  1028    1
  3796   731   727    1
  3797   803   802    1
  3798  2113  2112    1
  3799  2115  2112    1
  3800   727   730    1
  3801   727   729    1
  3802  1741  1737    1
  3803  3903  3902    1
  3804  1862  1863    1
  3805  1862  1866    1
  3806   702   706    1
  3807   702   704    1
  3808  2114  2112    1
  3809  3902  3905    1
  3810  3902  3906    1
  3811  1025  1022    1
  3812  2112  2116    1
  3813  1739  1737    1
  3814   804   802    1
  3815  4283  4282    1
  3816  1023  1022    1
  3817  1026  1022    1
  3818  1737  1740    1
  3819  1737  1738    1
  3820   402   405    1
  3821   402   406    1
  3822   402   403    1
  3823   802   806    1
  3824   802   805    1
  3825  1022  1024    1
  3826  1854  1852    1
  3827  1269  1267    1
  3828  2675  2672    1
  3829  2964  2962    1
  3830  1855  1852    1
  3831  4282  4285    1
  3832  4282  4284    1
  3833  4282  4286    1
  3834  2676  2672    1
  3835  2674  2672    1
  3836  1270  1267    1
  3837  1268  1267    1
  3838  2672  2673    1
  3839  1852  1856    1
  3840  1852  1853    1
  3841  2963  2962    1
  3842  1267  1271    1
  3843  2962  2965    1
  3844  2962  2966    1
